&HEAD CHID='cluster1',TITLE='Cluster room Demo'  /
&MESH IJK=36,74,36, XB=0.0,3.35,0.0,7.32,0.0,3.6 /


&TIME TWFIN=0.0 /
&DUMP NFRAMES=600/

&REAC SOOT_YIELD=0.01,FUEL='PROPANE'/

&OBST XB=1.68,2.29,3.96,5.03,0.0,1.83 /
&OBST XB=2.29,2.90,3.96,5.03,0.0,1.83 /

&OBST XB=0.61,1.22,1.52,3.35,0.0,1.83 /



SLCF PBX=0.2286,QUANTITY='TEMPERATURE' /left bench
