&HEAD CHID='agl2_test',TITLE='Test AGL slices' /

&MULT ID='mesh', DX=4.0, DY=4.0, DZ=1.0, I_UPPER=1, J_UPPER=0, K_UPPER=2 /
&MESH IJK=20,10,20, XB=0.0,4.0,0.0,1.0,0.0,1.0, MULT_ID=mesh /

&DUMP NFRAMES=10 /

&INIT XB=0.0,8.0,0.0,1.0,0.0,0.5  TEMPERATURE=100.0 /
&INIT XB=0.0,8.0,0.0,1.0,0.5,1.0  TEMPERATURE=200.0 /
&INIT XB=0.0,8.0,0.0,1.0,1.0,1.5  TEMPERATURE=300.0 /
&INIT XB=0.0,8.0,0.0,1.0,1.5,2.0  TEMPERATURE=400.0 /
&INIT XB=0.0,8.0,0.0,1.0,2.0,3.0  TEMPERATURE=500.0 /

&SURF ID = 'GRASS'
      RGB = 122,117,48 /

&GEOM ID='terrain', SURF_ID='GRASS', IS_TERRAIN=T,
      VERTS=
        0.0,0.0,0.0,
        0.0,1.0,0.0,
        8.0,0.0,2.5,
        8.0,1.0,2.5,
        
      FACES= 
           1,3,4,1,
           1,4,2,1
             /


&TIME T_END=10. /  Total simulation time

 Y slices

&SLCF PBY=0.5,QUANTITY='TEMPERATURE', VECTOR=T /
&SLCF AGL_SLICE=0.2, QUANTITY='TEMPERATURE' /
&SLCF AGL_SLICE=0.5, QUANTITY='TEMPERATURE' /
&SLCF AGL_SLICE=1.0, QUANTITY='TEMPERATURE' /

&SLCF PBY=0.8,QUANTITY='TEMPERATURE',CELL_CENTERED=.TRUE. /


&TAIL /
