&HEAD CHID='agl_test',TITLE='Test AGL slices' /

&MESH IJK=40,10,60, XB=0.0,8.0,0.0,1.0,0.0,3.0 /

&DUMP NFRAMES=10 /

&INIT XB=0.0,8.0,0.0,1.0,0.0,0.5  TEMPERATURE=100.0 /
&INIT XB=0.0,8.0,0.0,1.0,0.5,1.0  TEMPERATURE=200.0 /
&INIT XB=0.0,8.0,0.0,1.0,1.0,1.5  TEMPERATURE=300.0 /
&INIT XB=0.0,8.0,0.0,1.0,1.5,2.0  TEMPERATURE=400.0 /
&INIT XB=0.0,8.0,0.0,1.0,2.0,2.5  TEMPERATURE=500.0 /
&INIT XB=0.0,8.0,0.0,1.0,2.5,3.0  TEMPERATURE=600.0 /
&SURF ID = 'GRASS'
      RGB = 122,117,48 /

&GEOM ID='terrain', SURF_ID='GRASS', IS_TERRAIN=T,
      VERTS=
        0.0,0.0,0.0,
        0.0,1.0,0.0,
        8.0,0.0,3.0,
        8.0,1.0,3.0,
        
      FACES= 
           1,3,4,1,
           1,4,2,1
             /


&TIME T_END=10. /  Total simulation time

&SLCF PBY=0.5,QUANTITY='TEMPERATURE', VECTOR=T /
&SLCF AGL_SLICE=0.2, QUANTITY='TEMPERATURE' /
&SLCF AGL_SLICE=0.5, QUANTITY='TEMPERATURE' /
&SLCF AGL_SLICE=1.0, QUANTITY='TEMPERATURE' /

&TAIL /
