&HEAD CHID='BT10m_2x2km_LS' /

&MESH IJK=25,25,20, XB=0,500,0,500,91,291, MULT_ID='mesh' /
&MULT ID='mesh', DX=500, DY=500, I_UPPER=3, J_UPPER=3 /

&TIME T_END=1800 /
&MISC LEVEL_SET_ELLIPSE=F, LEVEL_SET_MODE=1 /
&WIND SPEED=14.866, DIRECTION=340.3462 /

&SURF ID='GRASS'
      TEXTURE_MAP='BT10m_2x2km.jpg'
      VEG_LSET_ROS_HEAD = 2.0
      VEG_LSET_ROS_FLANK = 0.05
      VEG_LSET_ROS_BACK = 0.05
      VEG_LSET_WIND_EXP = 1
      RGB = 122,117,48  /

&SURF ID='NO BURN'
      VEG_LSET_ROS_HEAD = 0
      VEG_LSET_ROS_FLANK = 0
      VEG_LSET_ROS_BACK = 0
      COLOR = 'BLACK' /

-- Ignitor fire
&SURF ID ='IGN FIRE', VEG_LSET_IGNITE_TIME=1, COLOR = 'RED' /
&VENT XB=1600,1920,1630,1640, 96, 96, SURF_ID='IGN FIRE', GEOM=T / line
&VENT XB= 200, 400,1780,1800, 91, 91, SURF_ID='IGN FIRE', GEOM=T / line

-- Boundary conditions
&SURF ID='CROSS_INFLOW',VEL=-14.,VEL_T=-14.,0.,RAMP_V='RAMPVEL'  /
&RAMP ID='RAMPVEL',T=0.0,F=0.0 /
&RAMP ID='RAMPVEL',T=0.5,F=1.0 /

&VENT DB='XMIN', SURF_ID='OPEN' /
&VENT DB='XMAX', SURF_ID='CROSS_INFLOW' /
&VENT DB='YMIN', SURF_ID='OPEN' /
&VENT DB='YMAX', SURF_ID='CROSS_INFLOW' /
&VENT DB='ZMAX', SURF_ID='OPEN'  /

&DUMP DT_SLCF=0.5 /
&SLCF QUANTITY='LEVEL SET VALUE', AGL_SLICE=1. /

&GEOM ID='terrain', SURF_ID='GRASS'
IJK=100,100,XB=0.000000,1968.365112,0.000000,1945.793823,
ZVALS=
 159.811859, 159.642685, 158.480637, 158.573013, 155.296570, 156.310089, 157.407059, 158.219376, 159.183563, 160.624146,
 161.438309, 163.804443, 164.562286, 164.927933, 164.985733, 165.264572, 165.751160, 166.124084, 167.358078, 168.614899,
 169.481598, 174.638535, 175.184189, 175.099930, 175.719559, 175.647339, 173.393890, 171.551682, 168.859665, 167.796127,
 167.595612, 169.098938, 169.340759, 168.886307, 168.154999, 167.843201, 168.329849, 168.859863, 169.106323, 169.487656,
 169.924774, 170.534149, 171.250626, 172.687469, 173.174957, 173.906799, 176.448364, 177.209244, 177.325363, 176.509232,
 177.154007, 177.769623, 178.022034, 181.432892, 181.748169, 181.728683, 181.930542, 182.930466, 182.133759, 182.624786,
 182.770920, 188.028824, 193.582626, 194.751160, 194.042557, 194.656998, 195.380585, 192.434204, 184.594574, 183.033081,
 180.780807, 175.642685, 171.452652, 173.621902, 172.965790, 175.468842, 175.985977, 178.538391, 179.460861, 180.939758,
 182.246216, 184.235168, 184.851898, 185.286240, 188.306183, 189.705109, 189.564545, 189.275360, 192.367996, 195.529678,
 191.309402, 183.480042, 173.523849, 171.648529, 167.822922, 162.736267, 157.008133, 154.985428, 152.265884, 147.524185,
 159.259415, 158.881363, 157.300385, 157.982025, 155.146088, 156.719238, 158.374893, 159.712616, 161.212219, 161.654373,
 162.593292, 165.147263, 165.693909, 166.594772, 168.282974, 167.209885, 167.798950, 168.173386, 166.762878, 167.029175,
 168.356674, 169.712967, 171.534851, 172.929138, 173.919174, 174.680359, 174.245453, 173.811935, 170.457184, 168.721268,
 166.044495, 166.327606, 168.129791, 168.700790, 168.587936, 168.398575, 166.685822, 168.157043, 168.838654, 170.785934,
 170.830246, 170.756073, 171.590866, 171.861420, 172.863419, 174.949997, 177.035782, 176.881638, 176.340179, 176.980331,
 177.314590, 177.436035, 180.680740, 181.473785, 181.538055, 181.712402, 181.857513, 182.889160, 182.199997, 182.805588,
 183.055511, 189.311157, 194.190491, 195.450211, 194.897324, 194.428772, 195.008530, 191.481400, 185.563934, 182.936737,
 178.480423, 174.470169, 168.619614, 167.809357, 170.991257, 175.430862, 174.763168, 175.292038, 175.679840, 179.870941,
 181.083588, 180.498795, 180.273148, 180.495422, 183.766815, 185.823441, 186.468567, 185.945282, 188.790283, 190.100082,
 185.020050, 176.862900, 168.236511, 159.615112, 157.642349, 153.440063, 149.138840, 145.877914, 144.047180, 140.689316,
 158.173416, 157.676697, 155.440704, 154.661682, 155.054504, 157.232101, 158.162231, 160.909454, 163.006836, 163.523026,
 164.129807, 165.624298, 166.961319, 167.549103, 168.681396, 168.678879, 168.495560, 168.269028, 167.280518, 166.420395,
 166.374939, 167.667679, 168.228821, 169.886536, 171.596878, 173.237579, 173.439240, 173.885178, 172.583466, 168.596893,
 165.633499, 164.402649, 165.307602, 166.878326, 168.298065, 167.043304, 165.377747, 168.716949, 168.872910, 171.391541,
 171.500687, 170.894608, 171.641220, 172.085938, 172.409958, 175.900558, 176.966461, 176.534195, 176.364090, 177.138702,
 177.440048, 180.550125, 181.435959, 181.375793, 181.063843, 181.064728, 182.253799, 182.914627, 182.215607, 182.970520,
 183.198059, 190.603287, 194.394638, 195.421478, 195.169510, 194.609772, 195.271912, 191.597778, 185.587280, 180.666016,
 177.116928, 174.709335, 171.014404, 166.553238, 166.994019, 170.825317, 174.303421, 174.247787, 174.588699, 174.539993,
 176.263947, 176.268494, 176.061981, 177.149704, 179.876938, 185.454803, 184.735611, 182.780075, 184.271667, 183.386993,
 177.843369, 170.273010, 161.571899, 153.562042, 148.941345, 144.836823, 140.296677, 138.097031, 136.298416, 133.648682,
 155.118317, 155.379913, 154.344513, 153.632324, 154.838791, 157.942337, 157.965622, 161.246140, 163.991653, 165.772659,
 166.474030, 166.577728, 168.332504, 169.375488, 170.135559, 171.158371, 170.420258, 169.324768, 167.896088, 165.866226,
 164.824554, 165.551605, 166.927536, 167.749298, 168.936157, 170.577164, 172.093369, 171.649811, 170.832397, 169.158554,
 164.910568, 163.514099, 162.978363, 164.696884, 164.989563, 164.388336, 164.531219, 165.786179, 167.956680, 171.645859,
 171.916122, 171.232407, 171.679092, 172.218750, 172.377609, 176.531433, 177.335251, 176.145966, 176.977051, 177.067856,
 180.411499, 181.397827, 181.269669, 180.453903, 181.356033, 182.741394, 182.854614, 182.547928, 182.540710, 183.034851,
 183.803757, 191.741089, 194.557510, 195.456360, 195.150848, 194.957092, 195.493225, 191.349564, 186.394821, 184.740997,
 181.392517, 176.106201, 171.870560, 167.924637, 163.231186, 168.013016, 171.863342, 171.494553, 170.085480, 168.859238,
 170.712891, 171.401169, 171.660324, 173.250839, 177.191681, 180.631317, 179.354813, 173.102325, 175.235580, 174.622772,
 169.755829, 163.149445, 155.496857, 147.835007, 140.633713, 137.809998, 134.650925, 131.166290, 128.761215, 125.928490,
 154.239960, 154.631119, 153.470108, 153.186127, 154.689316, 156.836456, 157.627899, 160.648773, 163.301361, 165.397308,
 166.477127, 166.977661, 168.660172, 170.273376, 172.242630, 173.258072, 172.544312, 170.509003, 168.819901, 166.009399,
 165.623001, 163.954453, 164.425201, 165.097504, 166.742386, 168.068497, 169.773956, 169.830292, 168.060043, 166.169479,
 163.419220, 162.284286, 161.590424, 163.875717, 164.593719, 163.836456, 163.980591, 164.340256, 166.283173, 171.880371,
 172.028183, 172.034424, 172.081314, 172.324432, 172.891434, 177.527206, 177.419235, 176.466965, 177.319138, 177.397247,
 181.579407, 181.479279, 180.357529, 181.711365, 183.992935, 183.776398, 183.721329, 183.079010, 183.075745, 183.479660,
 185.428589, 192.811935, 195.051941, 195.694870, 195.169327, 195.289276, 195.560471, 192.469406, 186.101883, 185.311661,
 180.690369, 177.141754, 173.363419, 165.099182, 162.087982, 165.991562, 167.526306, 167.224701, 166.669434, 165.415436,
 165.716537, 164.893707, 163.199249, 165.728943, 170.718475, 175.635132, 173.707336, 165.619461, 165.163116, 165.458237,
 161.031235, 155.174118, 147.895233, 141.479507, 136.047653, 132.043091, 128.546967, 125.315521, 122.936646, 120.813889,
 152.908524, 153.506516, 152.131409, 153.032272, 153.811859, 155.331696, 156.538254, 158.956711, 161.171463, 163.244507,
 165.003998, 166.846176, 169.613693, 172.299210, 174.213791, 175.784317, 175.754593, 173.129028, 169.625412, 167.269974,
 164.576538, 163.071747, 162.887054, 163.028488, 164.002060, 165.754486, 167.285309, 165.516357, 164.411682, 162.558914,
 161.582718, 161.031158, 159.598358, 162.054947, 164.363205, 163.756973, 163.838013, 165.084106, 166.169952, 171.240936,
 172.265884, 172.223541, 172.258148, 172.654388, 174.230667, 177.879715, 177.939865, 177.008102, 177.783646, 177.757462,
 181.296570, 181.029190, 180.212296, 184.083542, 184.419525, 184.236633, 183.290253, 182.917694, 183.578506, 183.634949,
 188.576492, 194.034958, 195.931122, 196.573898, 195.814682, 196.037064, 196.316544, 194.846359, 190.614014, 184.571075,
 181.229477, 178.040482, 174.917694, 167.065582, 160.935577, 164.501724, 165.138550, 161.646912, 160.152725, 159.367584,
 161.765015, 158.072449, 153.878448, 157.758179, 163.485062, 168.877121, 168.045013, 161.337326, 155.330429, 155.513412,
 152.181274, 147.057220, 140.940903, 134.420731, 130.078796, 128.433853, 124.101700, 121.613541, 120.148994, 117.114059,
 152.130249, 151.785553, 151.517578, 152.750214, 152.475113, 153.087738, 155.970734, 157.875916, 160.325241, 162.307236,
 165.046188, 167.481354, 172.304962, 174.242386, 175.129974, 176.958878, 177.079819, 174.874374, 170.620956, 167.952637,
 165.201950, 163.130280, 161.666794, 160.790588, 161.216537, 161.954620, 163.841766, 162.150894, 162.465454, 161.090775,
 160.994247, 158.537781, 157.151047, 160.296524, 164.561813, 164.361420, 163.994507, 167.349106, 167.647095, 170.362610,
 172.213058, 172.649567, 173.863159, 174.603439, 175.051224, 176.687408, 177.551056, 177.377213, 178.100372, 178.347305,
 181.418076, 181.238983, 182.377121, 185.907578, 184.628632, 183.785233, 183.384323, 183.731445, 183.884903, 184.473175,
 192.506577, 195.404999, 197.698883, 197.751221, 196.723465, 197.357452, 197.367950, 194.312927, 192.327438, 187.556442,
 183.105774, 178.742859, 175.534973, 168.085434, 159.884552, 160.000565, 160.745697, 156.207642, 152.355942, 152.567322,
 154.303207, 152.421600, 144.481155, 150.274918, 155.852051, 160.389923, 161.550797, 157.665009, 148.362045, 145.951874,
 143.644119, 139.092819, 133.908340, 128.851700, 125.832642, 124.603004, 120.934242, 121.568588, 116.695107, 114.721046,
 151.420044, 150.177155, 151.554596, 151.862381, 152.308258, 152.479965, 155.397583, 156.170410, 160.170822, 162.061142,
 166.107834, 167.544907, 173.894638, 174.110306, 177.317245, 177.751907, 177.082733, 175.269516, 171.532333, 168.224792,
 165.635757, 163.179749, 161.028229, 159.384109, 158.373749, 158.041534, 158.216507, 160.110748, 159.835037, 158.741531,
 156.106903, 157.368927, 160.625885, 163.156479, 164.890747, 165.155411, 164.726639, 166.756729, 167.576019, 169.992432,
 172.040131, 172.772308, 173.802841, 174.450836, 174.687119, 175.063126, 175.170502, 177.320068, 177.881424, 178.705917,
 181.794571, 181.824615, 185.526581, 186.186890, 185.285355, 184.312531, 184.425446, 183.977737, 184.868179, 191.223785,
 194.470963, 196.848206, 199.496246, 199.278275, 198.251465, 198.959930, 198.125504, 193.197601, 191.770462, 188.675781,
 183.621399, 178.879044, 172.324448, 167.021423, 160.011444, 155.608917, 152.923492, 148.663101, 146.106079, 145.416260,
 145.644730, 146.130951, 137.990982, 142.656143, 146.932617, 151.447800, 154.363815, 153.396301, 147.062073, 137.113419,
 134.953476, 130.765656, 127.276382, 125.157097, 123.532806, 121.549873, 120.282555, 119.167824, 115.950188, 111.588112,
 149.031219, 150.355408, 151.108154, 150.610931, 151.406784, 152.198410, 154.741287, 154.983231, 159.876495, 162.424973,
 165.590103, 166.773987, 173.362366, 174.485687, 177.852951, 178.050583, 177.852448, 175.957352, 172.837204, 168.714691,
 165.020065, 162.634064, 160.014923, 158.892807, 156.414398, 156.443314, 156.610245, 156.913406, 156.500015, 154.930984,
 157.128052, 161.400192, 163.138565, 164.494797, 165.940506, 165.864273, 166.020889, 166.847092, 168.441071, 170.188004,
 171.282822, 172.096024, 172.893509, 173.436523, 174.010117, 174.823090, 175.556747, 177.189621, 177.850327, 180.242798,
 184.692963, 185.745651, 188.530640, 186.932205, 186.371719, 185.076004, 184.768463, 186.733734, 193.173004, 197.893509,
 197.843811, 198.158966, 200.892548, 200.688660, 199.864548, 200.565720, 197.933899, 191.834198, 189.491913, 184.879150,
 180.792603, 178.364136, 172.948547, 169.827408, 167.771240, 163.019867, 156.562607, 150.528900, 146.346603, 139.917938,
 136.348480, 137.427704, 132.871246, 134.555069, 138.246490, 142.590286, 146.472122, 147.695694, 145.453186, 138.478134,
 128.643936, 122.544212, 122.174126, 122.319946, 120.692497, 119.434845, 118.296890, 117.218552, 114.040756, 110.214622,
 149.168823, 149.744537, 147.969101, 149.632797, 149.921570, 151.724136, 153.445419, 155.366806, 159.553619, 161.774582,
 164.732681, 167.482986, 170.326019, 172.188965, 174.098190, 175.250183, 175.998154, 176.525269, 174.014206, 169.124191,
 164.674026, 161.455399, 159.535568, 157.546066, 155.808441, 151.588684, 152.238022, 152.496445, 153.447037, 156.369049,
 159.892334, 162.527115, 163.490799, 165.931992, 167.966263, 166.426804, 167.465073, 168.683685, 169.132278, 170.981674,
 171.546249, 173.529984, 173.615005, 174.813232, 175.125290, 175.354126, 176.067963, 177.300781, 178.193695, 182.155884,
 184.657944, 187.122437, 189.534882, 189.236954, 189.606812, 192.719620, 192.142853, 195.894653, 197.541061, 198.351776,
 197.819061, 199.563583, 201.961441, 201.765640, 201.085922, 201.922836, 198.200104, 194.392471, 189.989151, 185.411758,
 180.610519, 179.842789, 175.553619, 172.600266, 170.407578, 167.192596, 161.838608, 154.103210, 147.505219, 142.453705,
 134.463837, 129.333176, 124.950089, 126.041725, 128.886749, 133.375748, 137.823181, 139.938110, 140.481186, 137.512314,
 131.253281, 123.352142, 116.395126, 117.964699, 117.494530, 115.884590, 115.212486, 115.153412, 112.954330, 111.118629,
 149.286514, 146.881897, 146.970001, 148.859131, 149.209778, 150.458038, 154.010849, 156.730392, 159.031342, 160.783951,
 163.312729, 166.660080, 168.684616, 168.847046, 169.041351, 170.024292, 170.768127, 171.552475, 171.339569, 167.937225,
 164.589600, 160.612625, 158.388138, 155.892807, 153.910324, 151.752502, 155.797134, 156.662903, 157.510681, 160.296524,
 160.522049, 162.458557, 164.707703, 169.672729, 172.138382, 172.213654, 169.455536, 168.985214, 169.834763, 171.327087,
 171.775238, 173.834778, 173.700653, 175.477692, 175.495239, 176.451462, 177.411606, 177.813965, 180.269394, 182.365875,
 185.071457, 187.712799, 189.633133, 190.471863, 194.122025, 195.177170, 195.662979, 196.447296, 196.979706, 197.871262,
 199.372757, 200.777802, 201.626663, 201.645691, 202.030243, 201.986099, 200.546463, 197.146210, 192.748322, 188.772675,
 184.975891, 180.696365, 177.679642, 172.574966, 167.663925, 164.717300, 162.732391, 157.679367, 150.417953, 143.169525,
 138.721542, 133.145386, 127.298645, 118.461205, 119.329765, 124.599083, 129.852753, 131.994461, 132.356827, 130.845200,
 126.206825, 120.177444, 113.979759, 113.297050, 113.918396, 112.947906, 112.266121, 113.094620, 113.103806, 112.900352,
 146.771637, 147.126984, 147.054749, 148.160507, 148.582092, 150.417892, 151.958557, 155.688400, 157.743881, 158.915268,
 161.273849, 164.885910, 167.563599, 167.848663, 165.248535, 164.860626, 166.012863, 167.591629, 165.702988, 165.660278,
 165.014267, 160.599640, 158.908539, 155.369461, 152.951324, 153.725052, 155.991486, 157.232162, 158.547821, 160.352234,
 160.500473, 163.848679, 167.653214, 170.094376, 172.991638, 177.761719, 179.757065, 175.891968, 175.189651, 174.924438,
 176.079102, 177.439651, 179.644974, 180.408020, 177.574112, 177.075211, 177.579086, 178.393234, 182.310287, 182.254089,
 186.919922, 187.198456, 189.684433, 191.701767, 194.613388, 195.045242, 194.998444, 195.455551, 196.188019, 197.157547,
 199.993149, 201.711533, 202.093567, 202.340714, 202.493301, 201.665634, 199.970978, 196.773468, 194.000351, 190.911636,
 186.121826, 182.342270, 176.765564, 174.249969, 168.390671, 164.078003, 161.060471, 159.018127, 154.722321, 145.703110,
 138.277008, 134.502151, 130.566391, 122.326385, 114.755272, 118.023323, 123.046692, 124.660202, 125.232666, 123.825424,
 120.418755, 116.496384, 112.884209, 110.650490, 110.632957, 109.367737, 108.504372, 109.919174, 110.773544, 111.470940,
 145.956116, 146.895859, 146.958847, 147.252258, 147.805786, 149.086884, 150.829987, 152.738327, 155.228210, 156.829880,
 158.220856, 161.309998, 163.430771, 163.218796, 161.236694, 159.899033, 161.755493, 163.903137, 164.808243, 165.781494,
 164.101715, 161.872925, 153.330200, 150.094040, 154.371490, 154.726807, 156.502502, 157.193817, 158.828247, 159.967819,
 162.270142, 165.847885, 167.271408, 170.430832, 173.553223, 180.054337, 182.946625, 184.881638, 185.642136, 185.344391,
 185.543152, 186.903702, 189.618530, 189.462814, 186.460602, 185.280563, 185.253357, 182.745224, 182.359146, 182.771439,
 187.104721, 187.301697, 188.572311, 193.354843, 194.166840, 194.899368, 195.202133, 195.802521, 196.726563, 197.602707,
 200.871979, 202.274109, 202.338684, 202.361847, 202.143967, 200.144745, 198.861084, 195.514832, 193.497345, 190.558228,
 186.286072, 181.815948, 176.958954, 172.457550, 168.476242, 162.346420, 157.248596, 154.779190, 154.092178, 146.827438,
 137.911118, 132.083420, 127.471947, 121.322350, 113.806236, 113.418648, 116.908539, 118.335312, 118.518761, 117.966438,
 115.298912, 113.646690, 111.084236, 110.511139, 109.098709, 108.467438, 108.335587, 108.414124, 108.140884, 108.458946,
 145.823090, 146.794678, 147.031998, 147.101334, 147.100677, 148.321777, 149.346054, 150.939880, 153.057220, 153.860092,
 155.496796, 156.460815, 156.559402, 157.377090, 156.530441, 155.476913, 156.353912, 158.447937, 159.134964, 160.837845,
 159.666840, 154.246231, 148.725754, 152.559387, 154.779572, 156.423111, 156.572571, 157.906876, 158.931076, 160.542709,
 163.746414, 166.295502, 168.712875, 172.108200, 174.247025, 179.995056, 182.862930, 185.112747, 188.539246, 190.184723,
 190.864319, 192.819305, 193.131500, 191.994141, 189.676926, 188.133911, 189.040878, 191.262329, 190.273590, 190.352814,
 191.410172, 194.284622, 196.765915, 197.539093, 196.492523, 195.375534, 195.409164, 196.235870, 196.595718, 200.002731,
 202.146042, 202.404724, 202.530441, 201.404022, 198.054367, 195.538834, 193.556580, 191.319885, 188.865143, 186.269119,
 183.014404, 179.889664, 175.049805, 170.092529, 163.123245, 159.022247, 154.352936, 149.134201, 147.122253, 142.737625,
 134.693542, 128.816330, 124.579308, 118.733955, 112.823807, 110.722961, 113.226791, 113.668053, 113.478600, 112.360390,
 110.718071, 109.772018, 109.153404, 107.888802, 107.590149, 107.834122, 107.218933, 107.276497, 107.573067, 107.659286,
 145.692734, 146.112640, 146.415375, 146.487808, 146.432312, 146.099380, 147.805206, 149.542923, 150.507294, 151.491257,
 152.264465, 152.724380, 154.132156, 154.030563, 152.785278, 151.793640, 153.167465, 153.337616, 153.369583, 153.465652,
 149.240631, 147.492508, 148.965439, 151.402893, 153.644104, 156.331482, 156.536636, 158.425888, 159.922028, 160.619171,
 164.223618, 166.400482, 170.517944, 174.783249, 175.997299, 179.027985, 182.491821, 184.898895, 187.632111, 190.962936,
 191.895813, 193.240051, 193.298965, 192.379944, 190.659088, 189.338089, 189.686844, 192.024872, 193.717834, 194.663345,
 197.545685, 200.607071, 201.175537, 201.435684, 199.535812, 199.872726, 197.614182, 196.699814, 196.659500, 201.756821,
 202.149338, 202.469086, 201.109787, 197.927582, 193.983459, 190.518051, 187.616562, 185.121048, 182.594711, 179.092422,
 177.812744, 175.445511, 171.904327, 168.329956, 163.266312, 158.505020, 153.792084, 144.914459, 139.795624, 136.386322,
 131.400314, 126.107086, 122.098862, 117.773834, 112.345604, 109.262154, 110.135574, 110.263771, 111.223984, 109.570320,
 107.423340, 106.963448, 106.708687, 106.610512, 106.315353, 106.506256, 106.814758, 106.895004, 106.247169, 106.227104,
 146.146759, 146.810959, 146.540024, 146.247543, 145.739441, 145.894058, 145.905624, 147.080841, 148.481598, 149.364334,
 149.783249, 150.285660, 149.932388, 149.360138, 149.360962, 148.722961, 149.017029, 148.722549, 146.444901, 145.105469,
 144.839554, 149.559158, 152.366028, 153.214706, 155.023346, 155.071823, 156.871994, 157.720032, 159.636459, 161.174683,
 163.511612, 167.783890, 170.910812, 174.372238, 175.249130, 178.517578, 180.812469, 182.756577, 184.846344, 187.074936,
 189.308121, 191.959793, 192.783325, 191.204468, 190.681335, 189.712692, 190.229797, 192.253174, 193.679123, 194.068451,
 196.750992, 200.520294, 201.428619, 201.553482, 201.991943, 206.128723, 205.563339, 204.100494, 200.623322, 202.866486,
 202.128555, 199.045853, 196.238449, 194.057129, 190.472656, 186.186905, 182.443298, 179.439880, 177.032364, 175.401062,
 173.414429, 169.725494, 167.020477, 165.151978, 161.078766, 157.566147, 153.114944, 145.135452, 138.637299, 132.486389,
 126.811195, 122.223755, 119.030846, 115.760017, 111.901299, 109.881462, 108.869286, 108.928200, 108.407791, 107.731155,
 107.009071, 106.414238, 106.286110, 106.266235, 106.191849, 106.027130, 105.394936, 105.348610, 108.607544, 108.074364,
 146.128265, 146.860580, 146.265671, 145.902756, 145.398270, 145.313522, 145.344574, 144.130142, 146.078949, 147.009811,
 147.010452, 146.710770, 146.245132, 146.455307, 146.816284, 146.207184, 145.151428, 142.148315, 143.468735, 146.139908,
 147.270554, 150.513779, 151.836807, 154.119202, 157.439804, 157.951416, 158.406052, 160.104141, 162.347931, 163.034760,
 163.898773, 166.033890, 168.762817, 172.186417, 173.614960, 175.837021, 177.459976, 180.773544, 182.050186, 183.678741,
 185.723663, 187.522583, 188.778458, 189.274673, 189.701294, 190.180771, 191.314819, 192.605682, 193.202881, 193.762421,
 196.540237, 200.504593, 201.225677, 201.924591, 203.293228, 206.136444, 206.777451, 205.833420, 205.094940, 204.246353,
 201.490463, 197.163071, 192.155701, 188.519455, 185.087631, 182.515427, 177.254547, 174.126297, 173.387207, 171.468765,
 168.813293, 165.850128, 163.675720, 159.797195, 156.513550, 154.971771, 149.520279, 144.162323, 138.041794, 130.881317,
 124.908829, 119.167976, 116.804443, 113.686981, 111.499374, 109.831596, 108.689598, 108.446800, 107.754005, 107.204956,
 106.402847, 106.189835, 106.124542, 106.089668, 104.897079, 104.050560, 105.058212, 108.866791, 114.385597, 112.415489,
 144.961395, 145.568924, 145.563843, 145.708435, 145.383347, 144.233963, 143.322098, 143.378067, 143.930450, 145.181290,
 145.273422, 144.538406, 143.696732, 144.100159, 143.968033, 142.362579, 140.847702, 144.506470, 147.872787, 150.308685,
 152.606506, 154.964005, 156.706573, 157.191559, 157.430603, 158.205353, 159.383759, 161.563416, 162.881836, 164.602936,
 166.156418, 166.533249, 167.798141, 169.964600, 171.507645, 174.248810, 175.479370, 177.827103, 180.485275, 182.461792,
 184.026215, 186.077347, 187.697968, 188.873520, 190.224182, 191.031021, 192.456680, 193.131332, 193.269714, 194.332901,
 195.741913, 198.275208, 200.670715, 201.899185, 202.785034, 204.337692, 205.828735, 206.222519, 205.705795, 204.734848,
 200.791321, 197.377655, 191.599991, 185.256577, 180.613297, 177.161270, 173.759171, 172.820526, 171.909744, 168.655487,
 165.148788, 163.732330, 157.636475, 153.052780, 150.229507, 148.044220, 143.597870, 139.184296, 133.967880, 129.088684,
 123.149803, 118.506317, 114.710129, 112.915733, 111.217110, 109.518616, 108.291283, 107.555840, 107.301910, 106.683289,
 106.111855, 105.787788, 105.968346, 104.932297, 103.967133, 105.020500, 107.597603, 112.707344, 117.771622, 116.565056,
 144.285080, 144.486725, 144.703217, 145.190002, 145.093109, 144.247849, 143.291656, 142.701675, 142.791412, 142.917191,
 143.245300, 142.850662, 142.004959, 140.500778, 139.601822, 140.346497, 144.482834, 147.180176, 150.392166, 151.734283,
 157.084045, 160.385162, 160.554321, 160.864914, 159.806442, 159.922775, 160.713562, 162.924805, 163.933304, 167.297134,
 169.289886, 170.101822, 170.286346, 171.192673, 172.375885, 175.100067, 175.924026, 180.621277, 183.515854, 184.117950,
 183.951950, 186.375473, 187.424866, 188.964478, 191.275009, 192.305420, 192.759872, 193.213409, 193.500259, 194.819412,
 195.784546, 197.775345, 200.200729, 200.749100, 201.915894, 202.455429, 202.691071, 203.548309, 204.234634, 204.556946,
 201.418777, 198.115250, 193.897278, 189.895370, 183.132828, 179.608307, 175.915039, 172.650818, 168.951035, 167.003860,
 165.411026, 163.459625, 158.783463, 150.267532, 144.022232, 139.612183, 137.111786, 133.533447, 129.200226, 125.286133,
 120.851501, 116.853630, 113.916100, 111.711304, 110.417030, 109.169357, 107.815430, 107.106857, 106.699287, 105.811638,
 105.836533, 105.156342, 105.358223, 103.783768, 105.350037, 107.195938, 109.912376, 114.351326, 115.990540, 114.406975,
 144.069077, 144.386429, 144.409027, 145.029160, 144.772690, 143.885101, 143.086502, 142.094101, 142.526093, 142.789398,
 143.132065, 139.368744, 136.834183, 138.349640, 142.079346, 144.460648, 146.481400, 148.298431, 152.653046, 156.091782,
 161.497177, 164.914185, 164.941650, 161.632385, 161.378174, 161.423904, 163.548843, 164.448502, 165.015930, 168.103653,
 170.614136, 173.397247, 174.103760, 174.419769, 174.751419, 175.932404, 177.762894, 181.664978, 184.920410, 185.708038,
 186.288116, 186.845291, 187.469696, 189.314529, 191.236298, 192.923172, 193.385132, 193.919434, 194.681107, 195.193039,
 195.687592, 197.570923, 198.304016, 198.835571, 200.375504, 200.028381, 199.343384, 198.970886, 202.112762, 202.898834,
 200.704437, 196.954346, 195.559586, 190.609344, 186.338745, 182.935837, 180.104126, 175.183853, 171.182648, 168.612808,
 166.208633, 161.833359, 159.211472, 152.717545, 146.421967, 140.014542, 132.823486, 126.126892, 122.142639, 118.362602,
 116.017944, 114.472824, 112.792351, 111.297554, 109.961517, 108.988815, 107.756477, 106.791245, 106.269516, 105.616508,
 105.298157, 104.772766, 103.479164, 104.275116, 107.537308, 109.724159, 111.587662, 112.781975, 112.624863, 111.939774,
 143.439362, 144.022079, 144.265396, 144.659164, 144.180252, 143.512268, 143.489471, 143.142807, 142.723373, 142.737808,
 141.571503, 136.179016, 140.238037, 143.454758, 145.693100, 146.617477, 149.330582, 149.540939, 154.502716, 157.369720,
 162.033768, 165.846924, 165.684540, 163.750870, 162.743164, 163.175858, 164.503342, 165.531433, 166.751953, 169.924911,
 172.214935, 174.602036, 175.820084, 176.909012, 177.529144, 177.870041, 179.545151, 181.824722, 184.534378, 186.298828,
 187.707321, 187.758148, 188.077667, 189.663254, 191.600540, 193.117798, 193.890091, 194.196548, 195.575607, 194.976471,
 194.809158, 194.804688, 196.186050, 196.883331, 198.028168, 198.270676, 197.648254, 198.231537, 198.966690, 199.408966,
 198.526352, 197.983261, 196.892212, 195.503128, 188.937408, 183.458176, 181.244812, 175.557571, 173.874557, 169.869980,
 166.282089, 160.868988, 157.431396, 151.304428, 145.338242, 138.462036, 132.402420, 127.173294, 123.153679, 119.751236,
 115.488777, 113.055779, 112.488297, 111.271904, 110.044044, 108.894081, 107.774780, 106.650764, 106.045357, 105.914528,
 105.381149, 105.101479, 103.283127, 104.583633, 107.668076, 110.197678, 111.829971, 111.808548, 110.260353, 109.960876,
 143.534271, 144.254135, 144.331711, 143.950729, 143.863693, 142.999298, 143.265427, 143.328003, 142.670822, 142.440125,
 136.347229, 138.281631, 143.482864, 144.969345, 145.902634, 146.938416, 149.888870, 150.147568, 154.767181, 157.125336,
 162.249496, 165.698822, 165.282684, 164.236755, 164.049835, 164.301483, 164.989670, 167.302322, 168.711731, 172.582733,
 173.387207, 175.940826, 178.342484, 179.297241, 179.212646, 179.711273, 179.965744, 181.732086, 183.082886, 184.733597,
 185.938477, 186.697769, 187.961517, 189.564362, 191.456070, 193.434952, 194.651031, 194.743088, 195.053406, 195.129486,
 194.988602, 194.873795, 194.575745, 195.301086, 194.682083, 194.603424, 194.744446, 192.849609, 194.980606, 195.988937,
 194.994598, 195.804977, 194.271347, 192.263992, 188.762085, 186.506393, 182.739578, 179.300034, 175.597702, 171.597290,
 164.708954, 160.122910, 155.411407, 148.412048, 142.575836, 140.318848, 136.474594, 130.220459, 125.057739, 120.775818,
 116.977592, 113.439629, 111.836853, 110.968712, 110.280586, 108.950325, 107.887016, 106.677811, 105.850815, 105.466492,
 105.124451, 103.824646, 103.391235, 105.628395, 105.805717, 108.316917, 109.651955, 109.779129, 108.075478, 107.346870,
 144.503937, 143.114243, 143.501389, 143.304947, 143.111908, 142.792572, 142.099487, 142.074585, 142.145569, 140.578598,
 134.361649, 138.307526, 142.283340, 144.233948, 145.843903, 147.955231, 148.620163, 150.645508, 154.332031, 155.996155,
 160.380127, 163.275177, 165.063171, 165.301300, 165.554779, 165.858734, 166.218857, 167.326447, 169.242966, 172.510086,
 173.265350, 176.007065, 179.271423, 179.317490, 181.398300, 181.557617, 181.794617, 182.162827, 183.125259, 183.148026,
 183.505722, 184.839279, 187.177460, 187.790939, 190.515884, 192.866577, 193.247513, 194.448425, 194.905457, 194.528915,
 194.737778, 193.827225, 193.494705, 193.746658, 194.459854, 193.963394, 193.862442, 192.658188, 192.819016, 192.990768,
 192.306870, 192.557373, 189.832535, 188.793716, 187.558884, 187.205368, 186.619965, 182.411469, 175.471344, 171.209259,
 166.855301, 160.580582, 154.866776, 152.023849, 149.411148, 145.589050, 137.345276, 130.654404, 125.275101, 121.014351,
 117.762207, 114.595543, 111.406181, 110.065407, 109.229225, 108.289886, 107.337830, 106.658295, 105.870201, 105.174294,
 105.156624, 103.425407, 103.140755, 105.766602, 104.969543, 105.121231, 107.114059, 107.572449, 105.726379, 105.670021,
 150.378342, 145.135986, 142.450623, 143.006348, 142.790817, 142.663284, 141.217377, 142.073044, 141.910172, 140.964188,
 135.031158, 136.198395, 138.696838, 141.554718, 145.471359, 149.954300, 150.278183, 151.081543, 152.937073, 156.032852,
 158.968094, 163.178360, 165.516876, 166.596466, 167.641693, 168.870285, 168.498322, 168.490433, 169.770828, 171.549530,
 173.483902, 176.233673, 178.561737, 181.340805, 184.296906, 184.649017, 184.181000, 183.118408, 183.196014, 183.299988,
 182.719650, 183.221863, 186.355499, 187.604630, 189.351227, 191.235657, 191.845779, 191.549927, 193.319031, 192.738937,
 191.923340, 192.153122, 192.535721, 191.841660, 192.042984, 191.270126, 190.287582, 190.198959, 190.593399, 190.715179,