&HEAD CHID='trails4', TITLE='created from trails4.in' /
&MESH IJK = 99, 99, 30, XB = 0.0, 3000.000000, 0.0, 3000.000000, 73.875435, 341.876984 /
&TIME T_END = 0.0 /
&VENT MB = 'XMIN', SURF_ID = 'OPEN' /
&VENT MB = 'XMAX', SURF_ID = 'OPEN' /
&VENT MB = 'YMIN', SURF_ID = 'OPEN' /
&VENT MB = 'YMAX', SURF_ID = 'OPEN' /
&VENT MB = 'ZMAX', SURF_ID = 'OPEN' /

&CSVF CSVFILE='a180210_exp.csv' /

Terrain Geometry

&MATL ID = 'matl1', DENSITY = 1000., CONDUCTIVITY = 1., SPECIFIC_HEAT = 1., RGB = 122,117,48 /
&SURF ID = 'surf1', RGB = 122,117,48 TEXTURE_MAP='trails4.png' /
&GEOM ID='terrain', SURF_ID='surf1',MATL_ID='matl1',
IJK=100,100,XB=0.000000,3000.000000,0.000000,3000.000000,
ZVALS=
 109.188423, 108.018379, 107.378433, 107.513145, 107.259857, 107.527718, 107.378769, 107.215057, 106.986336, 107.269974,
 107.179031, 106.919411, 107.486778, 108.328186, 109.303268, 109.857887, 109.956024, 110.451187, 111.006721, 110.971962,
 110.833954, 110.676872, 110.473740, 110.262466, 110.550522, 112.433372, 115.134193, 116.316154, 116.786491, 118.002846,
 120.759033, 121.837692, 122.572090, 127.553871, 130.011017, 137.192856, 141.597641, 143.496536, 149.862686, 152.815018,
 152.705292, 151.951859, 148.630707, 148.169937, 147.638550, 152.777008, 157.947235, 158.449463, 154.721756, 149.995819,
 149.904190, 147.798111, 145.956207, 146.453186, 144.917404, 142.688278, 142.230850, 145.154907, 149.563522, 149.708069,
 149.833633, 149.676788, 149.340240, 145.125229, 142.881989, 141.599899, 139.293396, 136.148148, 134.469238, 134.575592,
 135.451813, 137.053192, 140.547104, 139.339996, 134.199387, 127.820824, 122.276787, 119.334923, 119.413315, 122.204597,
 124.369850, 127.877846, 130.552292, 130.980728, 129.729340, 125.158012, 124.902817, 126.558243, 121.017265, 110.527634,
 102.332397, 101.896278, 102.049438, 102.125046, 102.053680, 102.573433, 102.578552, 102.330276, 102.360298, 100.354706,
 109.224266, 107.273567, 106.874023, 107.242935, 106.716194, 106.490356, 106.876167, 106.620224, 106.164574, 107.341690,
 106.871758, 106.680573, 107.206970, 107.920479, 108.631073, 109.287842, 109.785767, 110.366730, 110.610672, 110.545876,
 110.384300, 110.284668, 110.290787, 110.617683, 111.917862, 113.903679, 116.126373, 117.678307, 118.893280, 120.456863,
 122.028458, 123.707237, 127.035583, 131.206772, 133.520523, 139.223740, 141.934128, 143.709167, 148.151108, 151.707443,
 152.907654, 152.980118, 152.737030, 151.576508, 151.970642, 153.495148, 156.109177, 157.028778, 154.728912, 153.310120,
 152.666153, 153.163330, 148.108231, 144.881454, 142.638123, 141.044479, 140.395538, 139.233337, 142.600433, 147.163452,
 148.018814, 147.670547, 147.583771, 147.265045, 146.644043, 144.978424, 141.934021, 137.353546, 133.164536, 131.800980,
 132.372116, 134.610992, 137.511520, 137.763382, 134.837662, 129.160034, 123.590927, 123.061592, 125.689606, 128.647278,
 132.319916, 137.839661, 141.618759, 142.565765, 139.554153, 132.990677, 132.417404, 132.877243, 123.350464, 111.631622,
 103.136078, 101.778419, 101.925941, 102.106117, 101.942383, 102.467209, 102.631195, 102.624001, 101.219025, 100.227364,
 108.464500, 105.699242, 106.519783, 107.079819, 106.785240, 106.070541, 106.132393, 105.558609, 105.797722, 107.088928,
 106.697182, 106.150597, 106.764359, 107.442055, 108.088722, 108.776527, 109.232483, 109.778008, 110.027863, 109.943680,
 109.819778, 110.117744, 110.897232, 112.021042, 113.428009, 115.258263, 117.025154, 119.315056, 121.252388, 123.082024,
 125.694885, 128.674530, 132.974136, 136.626480, 139.232712, 142.812515, 143.855377, 146.507294, 150.645096, 154.766098,
 155.660934, 153.435440, 155.735321, 155.650299, 156.123230, 155.704254, 154.490829, 156.841309, 157.613693, 156.288788,
 154.196381, 152.396286, 152.095749, 143.928574, 141.523392, 138.672363, 137.947327, 138.082016, 137.981476, 141.292267,
 143.523392, 143.495010, 143.209961, 142.955017, 143.355042, 142.691513, 141.805405, 138.745514, 133.780670, 130.284470,
 130.223495, 131.503143, 133.678116, 133.644272, 132.326599, 128.497864, 126.615196, 127.945732, 130.461243, 134.499863,
 138.667389, 146.177368, 151.767136, 152.288681, 148.027374, 142.025574, 141.470337, 136.899368, 123.553780, 112.757553,
 104.571632, 101.630180, 101.713898, 101.929466, 102.081177, 102.266319, 102.494843, 102.409798, 101.557541, 100.302765,
 105.689194, 107.732193, 106.187325, 107.034004, 106.647591, 105.899704, 105.454193, 106.506729, 106.003242, 106.427376,
 106.221092, 105.775070, 106.455345, 107.123291, 107.536476, 108.065269, 108.650589, 109.025620, 109.270538, 109.447495,
 109.873611, 110.240791, 111.161842, 113.023926, 114.608437, 116.579201, 118.610283, 121.086411, 124.008553, 127.225464,
 130.623947, 134.506989, 138.271454, 141.089676, 143.998291, 144.153137, 145.266495, 148.594360, 152.754044, 155.911743,
 159.747528, 158.260223, 160.352737, 158.025864, 157.247589, 158.593643, 157.715469, 158.197937, 158.077148, 158.327499,
 155.408554, 152.677429, 151.318771, 141.129364, 139.832932, 138.143280, 136.764328, 136.251236, 136.865601, 138.725311,
 138.612564, 138.067612, 138.231598, 138.227036, 138.492783, 138.037750, 138.157822, 136.458817, 132.839600, 129.495178,
 128.074905, 128.832062, 129.881943, 129.720612, 129.464569, 129.188171, 130.937775, 132.576187, 134.591812, 136.897018,
 139.535431, 146.216522, 153.233154, 156.865875, 153.489349, 150.969864, 150.128799, 142.091385, 129.092896, 115.606171,
 104.637985, 102.039589, 102.460358, 101.597801, 101.984917, 102.091675, 102.195213, 102.386620, 100.659218, 100.179237,
 106.075615, 106.992241, 107.412628, 106.889778, 106.350220, 106.303871, 105.537148, 105.027718, 105.554436, 106.433891,
 105.031342, 105.256989, 105.928726, 106.890144, 107.163918, 107.817421, 108.557045, 109.083313, 109.225182, 109.734001,
 110.252365, 111.055641, 112.217026, 113.893135, 115.635490, 117.426155, 119.943130, 122.847473, 128.465775, 131.880280,
 135.599548, 139.202316, 142.916092, 146.413132, 148.373718, 149.198318, 147.659332, 151.995987, 155.414688, 158.717880,
 161.907791, 163.910782, 166.370209, 158.894714, 160.555115, 160.849731, 163.059967, 158.293182, 159.008774, 157.245743,
 155.200577, 154.769241, 148.845825, 139.615707, 138.494110, 137.317886, 138.188339, 136.422562, 135.390747, 136.617554,
 134.191238, 132.705002, 132.328262, 132.000168, 133.265076, 133.181870, 133.832031, 133.273773, 131.288010, 128.478119,
 126.536377, 126.239998, 126.755508, 127.709839, 128.235596, 131.407471, 134.965118, 137.342163, 138.796890, 136.292282,
 135.794586, 139.668274, 145.675064, 149.675629, 146.283966, 146.624573, 150.648788, 144.270538, 131.614746, 118.518372,
 109.387650, 101.992859, 101.492355, 101.894180, 101.992401, 101.965729, 102.181473, 102.363235, 100.047523, 100.296608,
 106.343193, 106.677132, 107.183914, 107.114655, 106.482491, 105.619919, 105.098595, 105.124023, 105.232765, 106.508522,
 105.075493, 104.955788, 105.291359, 106.113647, 107.041138, 107.906853, 109.111916, 109.804276, 110.012611, 109.926140,
 110.480362, 111.679649, 113.380226, 115.073463, 116.214836, 118.899635, 121.386963, 124.912704, 131.025269, 135.622192,
 139.268646, 143.183868, 146.947662, 150.142807, 152.857285, 154.957108, 158.165756, 160.399017, 163.186401, 166.023544,
 165.914398, 169.915451, 175.252686, 166.948486, 163.091141, 163.288605, 165.248520, 164.945282, 159.550583, 158.188644,
 158.686035, 156.557434, 145.138123, 141.277512, 137.267136, 136.937729, 136.841080, 137.172012, 136.958542, 132.952133,
 131.759308, 130.492874, 129.761276, 128.993835, 128.274536, 129.272507, 130.595383, 129.437012, 128.793640, 127.356995,
 125.361099, 124.429222, 124.313255, 126.431686, 128.664230, 133.694458, 139.110397, 141.630630, 141.261703, 135.787521,
 132.042648, 134.391083, 138.506866, 145.684601, 137.088135, 138.400284, 142.435745, 141.166595, 132.234344, 118.020218,
 111.141624, 102.840515, 101.615120, 101.527718, 101.861122, 101.960876, 102.091148, 102.442062, 100.125420, 100.316689,
 105.969574, 106.311684, 106.730530, 106.385422, 105.739304, 105.039146, 104.593491, 104.294701, 105.161858, 105.790863,
 106.606544, 105.731407, 104.564232, 105.325012, 106.778343, 108.977608, 109.806915, 110.480843, 111.178802, 111.281067,
 110.916077, 111.748215, 114.482956, 116.353142, 117.851364, 120.340675, 123.613403, 128.081055, 132.691879, 138.208054,
 143.561752, 147.821854, 151.612457, 154.602188, 156.276749, 158.430054, 160.429306, 162.005707, 164.077728, 166.436462,
 167.762741, 178.795105, 182.896774, 175.192139, 165.098053, 165.456635, 166.119232, 167.044006, 166.018509, 161.343613,
 161.365250, 154.552139, 145.109329, 143.134766, 141.561798, 140.425186, 138.280258, 136.693893, 135.582245, 133.111496,
 132.215485, 130.938049, 129.026535, 127.886414, 126.998024, 126.495438, 126.418236, 125.173164, 123.486092, 123.565392,
 123.824348, 123.369232, 122.989799, 124.721115, 128.782333, 134.445282, 139.857986, 140.131454, 136.320343, 133.057739,
 128.331818, 128.859787, 135.170868, 135.689377, 128.794556, 127.772461, 127.184097, 125.148331, 121.016075, 115.090309,
 111.180000, 103.170235, 101.620064, 101.607864, 101.812927, 102.066391, 102.037086, 102.264641, 100.233665, 100.516998,
 105.531029, 106.150558, 105.969658, 105.511711, 104.983192, 104.413109, 103.790619, 104.657661, 104.854408, 103.634521,
 105.311691, 106.586281, 106.206841, 105.067215, 107.839615, 109.149826, 110.661224, 111.666138, 112.866447, 113.888947,
 113.934555, 114.175385, 115.225632, 116.971283, 118.892990, 121.205498, 124.940857, 129.323929, 134.335999, 139.478302,
 145.035934, 150.246338, 154.141556, 156.756393, 157.743195, 159.908432, 160.426315, 161.530411, 164.312225, 167.724319,
 170.759048, 181.140259, 186.964188, 183.536331, 169.768738, 167.264725, 167.340210, 166.623306, 165.407730, 163.828293,
 163.799957, 154.644287, 152.593140, 149.288818, 145.589111, 142.007202, 138.155319, 135.921906, 133.846878, 132.219116,
 132.588531, 132.452560, 130.081985, 128.522018, 126.954994, 125.338684, 124.708527, 123.726349, 122.700272, 121.579132,
 121.265137, 121.680969, 121.736359, 123.452782, 127.382500, 132.457016, 136.566483, 136.847855, 132.560501, 127.922264,
 125.091591, 124.952179, 126.033333, 124.466553, 119.132164, 117.370399, 116.990463, 115.230499, 112.441948, 109.126617,
 106.992104, 102.934502, 101.312454, 101.397964, 101.664207, 101.948441, 101.851051, 102.116951, 100.238708, 100.423271,
 105.399895, 105.319481, 105.493713, 104.715248, 102.737442, 103.534668, 104.199234, 104.294174, 104.075867, 103.128700,
 103.201996, 103.642746, 106.299583, 107.133278, 107.867020, 109.326439, 111.161926, 112.805000, 115.032761, 116.515656,
 117.110649, 117.084419, 115.892464, 116.669380, 119.447456, 122.188980, 126.665550, 130.104385, 134.268478, 138.909027,
 143.544281, 148.305557, 152.544769, 155.305496, 155.593231, 156.497253, 157.055084, 157.363098, 163.588867, 168.738647,
 173.829147, 177.866486, 187.658737, 189.510437, 179.124893, 173.406784, 167.776428, 167.216125, 166.467148, 165.400833,
 165.232941, 163.254471, 162.375763, 155.670044, 150.077881, 148.313629, 145.993774, 141.628372, 137.417099, 133.488953,
 131.742447, 130.898590, 128.433792, 127.453232, 125.090134, 124.823044, 126.206863, 122.299911, 122.170990, 121.117424,
 119.581955, 118.371651, 121.408020, 120.996147, 122.753448, 128.100189, 131.763016, 132.146423, 127.721420, 123.951981,
 122.169601, 120.706581, 120.124992, 118.064651, 116.212524, 114.589447, 112.017159, 109.498398, 107.162163, 104.398308,
 102.756386, 101.655830, 101.307632, 101.293724, 101.551758, 101.718117, 101.666573, 101.910934, 99.934341, 100.814651,
 102.214569, 102.290802, 102.416916, 103.117355, 103.336586, 103.190514, 101.641945, 104.005661, 103.760994, 102.807579,
 102.990204, 105.047523, 106.204376, 107.607704, 107.720055, 109.330460, 110.927216, 113.202286, 115.463646, 119.052330,
 122.398155, 119.865677, 117.523727, 118.265854, 120.935112, 121.933105, 126.905464, 129.236771, 133.315018, 135.990601,
 141.573578, 146.234177, 149.278168, 151.173584, 151.920959, 149.647385, 151.122620, 156.543854, 160.504395, 170.290619,
 177.014557, 181.480103, 186.586029, 189.159622, 184.936676, 180.635941, 173.672150, 167.726654, 165.553848, 170.181442,
 171.867737, 170.673950, 167.272919, 160.910446, 157.277664, 155.477951, 151.970642, 146.083466, 142.397675, 138.885620,
 134.650864, 136.156601, 133.865143, 129.419983, 126.574509, 125.303658, 126.321442, 121.850052, 118.994286, 117.886459,
 117.328949, 117.221123, 117.087791, 117.587730, 120.866875, 123.566734, 125.940315, 128.331085, 124.794182, 120.054665,
 118.525856, 117.069214, 116.354599, 115.543777, 113.687004, 112.322006, 110.457497, 107.984406, 105.430161, 103.327286,
 101.871407, 101.455971, 101.524696, 101.446770, 101.747078, 101.713646, 101.901176, 101.709045, 100.052147, 101.671570,
 102.804642, 102.978752, 103.093437, 102.893600, 102.309898, 101.109711, 101.814392, 104.590370, 102.782516, 102.429192,
 102.764763, 104.845345, 106.976410, 107.953094, 108.513466, 109.184837, 110.811012, 113.394630, 115.863144, 118.377441,
 120.791336, 120.206627, 119.681702, 121.076126, 122.123878, 124.643387, 127.908554, 129.573334, 132.960617, 135.414322,
 140.345276, 143.285767, 145.843933, 145.831375, 147.293381, 147.698257, 152.882004, 159.275803, 166.429993, 170.348389,
 180.180450, 184.892746, 189.411575, 190.591202, 187.120651, 181.858597, 175.447250, 171.379013, 172.743271, 176.827789,
 179.395294, 175.459244, 169.806778, 168.197495, 165.287888, 162.152267, 155.156174, 149.857941, 144.589981, 141.523499,
 143.990860, 144.033096, 140.103683, 134.601425, 128.715759, 126.671448, 125.129532, 121.912323, 120.203964, 117.481895,
 117.239220, 118.192337, 118.415405, 118.126534, 117.870613, 119.118378, 119.180481, 122.494965, 120.328255, 117.116287,
 115.233955, 114.114159, 113.484993, 112.692566, 111.572906, 110.306213, 109.128784, 107.110611, 105.096512, 102.792480,
 101.200661, 101.402618, 101.341072, 101.395355, 101.600960, 101.745346, 101.888359, 101.839470, 99.957535, 100.433052,
 103.607529, 103.464836, 99.797050, 101.559837, 100.556503, 100.383186, 103.254089, 103.661606, 101.974800, 102.176498,
 102.481369, 104.274986, 108.421120, 108.654884, 108.486038, 109.443169, 110.840614, 113.267052, 115.759895, 116.837898,
 116.707207, 119.869263, 121.211121, 121.856796, 122.583641, 126.750366, 127.810364, 130.883926, 132.419449, 134.018799,
 138.717270, 141.000336, 142.192825, 144.705841, 147.246857, 149.070343, 156.083969, 163.962021, 170.650711, 177.817612,
 183.233002, 187.793488, 192.539917, 192.228973, 189.400955, 184.758484, 179.249298, 176.687729, 179.319839, 182.503220,
 183.653305, 181.527985, 176.642258, 175.541977, 172.102737, 165.006348, 158.525864, 154.503189, 151.361084, 146.300064,
 149.458923, 150.827927, 144.514816, 139.356018, 133.001343, 129.370621, 126.401672, 124.249847, 122.493195, 119.679489,
 118.771614, 117.569199, 117.984474, 118.084114, 118.509857, 117.153664, 117.529243, 118.144661, 115.371292, 113.737129,
 112.606087, 111.646423, 111.022690, 110.264259, 109.689980, 108.665062, 107.394463, 106.179619, 103.889183, 102.247902,
 101.207214, 101.377243, 101.329300, 101.462311, 101.578957, 101.755310, 102.184761, 101.707939, 99.884766, 101.180481,
 103.165993, 102.790886, 99.308517, 99.932129, 99.896736, 100.393936, 103.232758, 102.314880, 101.624420, 101.948196,
 102.976570, 103.893486, 106.021225, 108.635948, 109.868912, 110.915825, 111.233986, 111.628845, 114.069199, 114.494972,
 117.755356, 117.676659, 121.731079, 121.436066, 122.983139, 126.910484, 128.097961, 131.079407, 132.894028, 133.544968,
 136.704788, 138.712463, 141.120071, 144.657562, 151.396683, 155.807739, 161.665604, 165.329712, 172.398712, 180.153198,
 189.433151, 194.564468, 194.237427, 193.891724, 192.039185, 188.102203, 185.048889, 183.538528, 185.742981, 188.037521,
 188.966797, 188.154633, 184.917816, 180.313385, 173.618729, 167.653656, 161.278152, 159.776962, 158.907089, 151.590958,
 153.453018, 153.323257, 145.046600, 142.649506, 134.765808, 132.041718, 128.365158, 126.374466, 123.913940, 121.671570,
 119.591141, 117.547737, 115.387459, 114.296524, 114.453064, 114.182487, 114.369446, 113.289520, 111.964279, 110.952515,
 110.315926, 109.535591, 108.768684, 108.011192, 107.271202, 106.474670, 105.400246, 104.316887, 102.841400, 102.203232,
 101.089088, 100.946541, 101.512863, 101.464790, 101.671036, 101.792122, 101.887321, 102.622940, 100.221176, 100.449806,
 102.421707, 100.946495, 99.050323, 99.452255, 100.766029, 100.176346, 102.453293, 101.080406, 101.315086, 102.182152,
 103.185318, 104.087997, 105.104851, 106.452148, 110.949821, 111.467773, 111.833237, 111.706322, 112.141922, 116.301460,
 116.840515, 117.647087, 120.482018, 121.798820, 124.470497, 126.280998, 127.743347, 130.631897, 132.553223, 134.419785,
 136.203201, 138.162308, 140.461212, 149.324020, 154.867859, 163.162750, 167.030670, 172.306152, 177.486069, 183.252686,
 190.271255, 195.875748, 195.621185, 195.553818, 194.015686, 193.320496, 192.636551, 189.598831, 191.392334, 193.884430,
 195.056732, 194.525360, 190.387848, 184.259720, 178.033951, 170.997559, 168.883698, 168.116562, 162.980927, 156.714081,
 157.078064, 155.812790, 148.862961, 143.515656, 139.142395, 132.992371, 132.259766, 132.153732, 131.152374, 128.392044,
 125.492920, 121.660255, 117.768845, 115.042686, 113.811676, 112.792831, 112.024933, 110.794670, 110.021721, 109.238739,
 108.299446, 107.473991, 106.595711, 105.761307, 105.126869, 104.322548, 103.467545, 102.681129, 102.235947, 101.400581,
 101.062241, 101.068764, 101.568764, 101.547935, 101.605217, 101.694130, 101.881470, 101.763641, 100.644279, 100.332451,
 101.531517, 99.379265, 98.421204, 98.951866, 99.060318, 100.453773, 101.267075, 100.613571, 101.395081, 102.451355,
 103.357178, 104.447716, 105.495811, 106.536270, 107.788307, 111.910782, 112.043625, 112.072060, 112.608063, 116.630898,
 116.956451, 117.363846, 119.605721, 124.232536, 124.239777, 125.202408, 129.150635, 131.062622, 134.348053, 133.954758,
 136.564255, 139.210724, 142.194229, 149.514511, 156.082794, 164.690811, 168.497421, 173.473312, 179.539856, 183.875443,
 189.601074, 192.173553, 195.121750, 196.104965, 197.728607, 199.366119, 199.397720, 196.819138, 196.899689, 199.729248,
 200.661804, 200.105026, 196.162369, 189.275742, 180.692413, 175.111923, 176.274307, 174.885468, 167.714630, 160.709579,
 161.440765, 159.731415, 152.404861, 145.629288, 139.446182, 135.677658, 137.227234, 137.691101, 137.084518, 135.993561,
 132.811432, 128.964508, 124.576248, 120.573875, 116.318924, 113.133987, 111.174843, 110.537819, 109.573090, 108.515793,
 107.455360, 106.307693, 105.347832, 104.408302, 103.626793, 103.054070, 102.469231, 102.031548, 101.751732, 101.166718,
 100.578529, 101.498581, 101.542458, 101.383232, 101.601944, 101.673676, 101.869911, 101.708099, 100.873581, 100.153297,
 102.788017, 98.300476, 97.992218, 98.050484, 98.850945, 100.117973, 99.811203, 100.412605, 101.732285, 102.832237,
 103.752533, 104.534218, 105.317520, 106.721992, 108.186905, 109.435562, 111.922287, 111.827858, 113.861023, 115.392197,
 117.165276, 122.646347, 123.567368, 122.836258, 123.752640, 125.548927, 131.321228, 131.093277, 135.155869, 134.506241,
 137.800125, 140.618637, 144.195984, 149.094788, 155.102173, 161.478195, 166.402390, 170.819214, 176.836792, 181.389618,
 181.693924, 187.855637, 188.234543, 194.290314, 198.159851, 203.164505, 206.172195, 204.438278, 202.558655, 205.522583,
 206.135056, 204.013550, 197.004211, 189.272293, 182.638641, 184.537323, 181.751068, 176.044113, 169.668655, 167.942459,
 168.303452, 164.376862, 155.859009, 147.364761, 141.717758, 143.420288, 147.913330, 147.384079, 144.141449, 139.646149,
 135.561615, 132.492065, 129.769775, 128.828552, 123.690735, 117.741867, 112.626472, 110.501503, 109.286369, 108.112793,
 107.197388, 106.230743, 105.333412, 104.280701, 103.432251, 102.963760, 102.337814, 101.939491, 101.187897, 101.018082,
 100.803841, 101.424583, 101.382507, 101.503845, 101.515076, 101.675056, 101.820587, 101.716766, 100.581741, 99.984589,
 99.104538, 98.002586, 97.639236, 97.653717, 99.050720, 99.317955, 99.302895, 100.141457, 101.950485, 103.232094,
 104.657127, 105.999321, 107.530800, 108.194092, 109.843102, 110.995598, 111.509148, 113.092972, 114.517754, 117.459587,
 123.424973, 123.562836, 123.429031, 124.323868, 124.940201, 129.784546, 131.962830, 133.098953, 136.081650, 136.664719,
 140.243896, 142.362259, 146.333298, 146.625717, 153.770370, 157.885239, 163.014496, 168.389450, 171.568985, 174.485062,
 178.649323, 179.632568, 183.387436, 184.310760, 192.977371, 201.551468, 209.098740, 210.084213, 209.397217, 211.415955,
 211.179276, 203.715347, 196.153595, 190.584656, 192.999741, 189.231995, 181.625778, 175.851089, 172.962631, 176.308197,
 174.189255, 167.701218, 159.031326, 152.915237, 151.617447, 154.050369, 154.093124, 152.240982, 144.982437, 141.429962,
 135.657288, 131.632431, 129.525085, 129.154663, 125.007896, 122.046761, 117.185623, 112.452347, 110.838028, 109.175484,
 107.339378, 106.100143, 105.276871, 104.585968, 103.882080, 102.837112, 102.207893, 101.899025, 100.904625, 100.908936,
 101.072144, 101.143692, 101.399803, 101.349083, 101.550232, 101.738708, 101.748901, 101.914528, 101.123573, 99.604530,
 98.220520, 97.660576, 97.445992, 97.440178, 98.229340, 98.764320, 98.980225, 100.707954, 103.136612, 105.442390,
 107.115555, 108.550789, 110.181908, 111.533836, 113.256844, 114.800163, 115.424248, 116.406265, 119.132484, 120.688812,
 125.538040, 125.220863, 124.687492, 125.276627, 131.345413, 132.557755, 132.293045, 135.868240, 139.380966, 140.593628,
 143.387314, 145.975189, 152.180939, 155.467453, 156.704849, 156.046082, 159.846695, 163.645615, 166.700485, 168.985138,
 171.044357, 173.558258, 177.944290, 180.956421, 185.948807, 196.143860, 207.142761, 211.808762, 214.326843, 214.547180,
 214.322479, 206.729294, 198.639023, 193.965240, 194.523926, 190.022583, 185.510147, 181.761078, 181.928070, 181.674484,
 179.471237, 174.278168, 165.632339, 160.744339, 159.642914, 163.524490, 162.112915, 155.102539, 147.229401, 140.104813,
 134.059296, 130.244308, 125.882683, 123.622017, 122.637070, 119.838417, 116.111145, 113.540855, 111.825607, 109.739273,
 107.909409, 106.279716, 105.600464, 106.430611, 105.596657, 102.718857, 101.803474, 101.332054, 100.876755, 100.714394,
 101.053917, 101.256042, 101.218536, 101.223831, 101.501068, 101.616585, 101.630463, 102.929581, 101.131081, 99.735062,
 96.934097, 96.595673, 97.069603, 97.380257, 98.358307, 98.521629, 99.428085, 101.931488, 105.591644, 107.694992,
 109.552147, 111.388512, 113.418793, 115.395691, 117.089729, 119.309265, 122.004303, 123.874710, 123.743767, 124.385498,
 125.599960, 124.961494, 127.176224, 131.761978, 135.846573, 138.327942, 140.292923, 144.337433, 147.921921, 149.248810,
 151.357452, 155.582993, 159.094818, 162.373489, 164.561996, 164.626053, 164.708893, 164.114822, 165.740891, 168.931641,
 173.835068, 176.367310, 180.406830, 186.783768, 194.529770, 201.073456, 206.518311, 209.775681, 210.586548, 211.050903,
 212.453903, 209.165726, 202.329681, 192.920258, 181.456955, 183.419983, 186.079468, 185.479568, 184.913834, 183.735916,
 180.471848, 177.243683, 174.434433, 171.024887, 168.733566, 168.594467, 167.494522, 161.373459, 151.913116, 143.664825,
 136.693115, 131.677155, 127.725113, 123.846504, 121.764999, 119.659683, 117.674820, 115.599983, 112.653442, 109.822937,
 108.057007, 106.536819, 105.853493, 107.659081, 107.406036, 103.542969, 101.764015, 100.759850, 100.283417, 101.134567,
 101.330841, 101.110580, 101.198311, 101.294868, 101.475960, 101.648651, 101.983780, 101.747536, 100.932610, 99.656258,
 96.773041, 96.612038, 96.990913, 97.278275, 98.104256, 100.004303, 102.888634, 107.966087, 110.426186, 111.722954,
 112.885986, 114.490227, 117.231216, 119.678406, 121.869400, 124.779305, 128.382828, 131.809006, 131.812698, 129.380081,
 129.312729, 131.171799, 134.977676, 139.825516, 144.788666, 147.726639, 148.804413, 153.311218, 156.892166, 159.360931,
 160.572327, 164.186829, 168.149963, 171.401688, 172.369858, 172.103439, 171.696960, 168.915497, 171.135757, 177.066818,
 179.776733, 182.731796, 187.018036, 193.013931, 197.547333, 200.653412, 202.913437, 205.988220, 206.350891, 207.076416,
 207.278275, 208.214447, 199.912064, 190.135696, 180.800369, 174.968842, 177.419098, 179.190506, 179.877792, 179.729950,
 178.078003, 175.962112, 171.292038, 168.145569, 167.157547, 168.044983, 169.002731, 165.741333, 156.978027, 148.101883,
 143.244186, 134.913483, 130.791183, 127.941566, 125.352249, 123.564758, 122.256798, 120.800827, 116.566147, 111.524086,
 107.677750, 106.440414, 105.586205, 105.370422, 105.184555, 102.834282, 101.812347, 100.486374, 100.876099, 101.126434,
 101.209763, 101.144821, 101.145973, 101.229065, 101.378090, 101.410927, 102.308617, 102.462616, 101.172157, 99.914696,
 96.616241, 96.508324, 96.530449, 97.809540, 101.440628, 105.123390, 109.612625, 115.139091, 116.565521, 117.812431,
 118.412056, 119.284065, 120.320007, 124.867973, 129.400391, 134.071289, 138.062546, 140.417816, 139.829010, 134.028229,
 133.604187, 138.153595, 143.013519, 147.619385, 150.279114, 153.204102, 155.846603, 157.930023, 159.607697, 161.649002,
 164.140594, 165.539185, 168.057053, 171.194443, 173.580963, 175.858551, 175.781143, 175.263687, 177.648758, 183.238495,
 186.476501, 190.366959, 191.255554, 194.328384, 196.110367, 197.175964, 198.819458, 201.443008, 202.939835, 204.783630,
 204.449295, 204.293381, 197.675110, 190.934555, 183.727112, 175.463669, 167.583145, 171.196793, 170.048401, 172.706085,
 171.588974, 170.667419, 166.304932, 162.604187, 161.739105, 161.958603, 167.157501, 170.667648, 165.236084, 156.783539,
 147.948883, 145.610962, 138.485641, 136.789520, 133.249863, 129.980179, 129.514099, 128.641357, 121.353493, 114.022301,
 108.438477, 106.612122, 105.128677, 104.172470, 103.300842, 102.409447, 101.557640, 100.020691, 100.964531, 101.164742,
 101.271492, 101.136940, 101.102966, 101.237007, 101.236427, 101.650291, 101.685997, 101.709259, 101.420242, 99.869659,
 96.462448, 96.579750, 96.520287, 99.077934, 104.194939, 108.920494, 114.813652, 120.968071, 124.170273, 124.782188,
 125.160904, 125.826714, 124.928825, 128.137909, 135.209625, 142.414703, 147.216293, 147.653961, 143.584457, 134.783997,
 136.320236, 144.682983, 145.200027, 147.435303, 149.752518, 152.410736, 154.902817, 156.975906, 158.983017, 161.536972,
 163.852325, 168.110931, 168.315216, 171.203995, 175.190109, 175.243805, 173.859192, 175.191345, 179.402893, 182.100388,
 184.562531, 186.875732, 188.110947, 189.144730, 190.642944, 191.495148, 192.416824, 195.385651, 201.896317, 204.756622,
 202.008530, 195.562546, 187.451202, 181.246460, 176.176025, 172.585114, 167.687881, 161.656891, 165.352509, 170.543106,
 165.290604, 164.662048, 163.349121, 155.836594, 153.705368, 155.024994, 161.518295, 171.022964, 169.099091, 162.484161,
 158.130508, 149.967728, 150.280960, 146.991730, 143.435974, 137.331421, 136.534515, 133.816071, 123.607567, 114.894295,
 109.058609, 106.374527, 104.593758, 103.772789, 102.440804, 102.122536, 100.789375, 100.594635, 100.911972, 101.272842,
 100.900566, 101.095352, 101.066338, 101.126770, 101.399910, 101.274345, 101.344177, 101.646301, 101.353050, 99.901680,
 96.539497, 96.500610, 98.033730, 101.592987, 107.652908, 114.828964, 122.817673, 128.504318, 131.680649, 132.574493,
 133.080261, 132.936981, 130.695984, 131.666397, 139.019516, 146.548050, 149.733719, 145.870636, 141.346573, 133.924698,
 137.724319, 142.552277, 143.754089, 146.660614, 151.173386, 155.016541, 159.031906, 157.994186, 159.310394, 160.882568,
 162.478088, 168.048737, 168.864883, 169.680878, 170.809402, 170.695236, 170.084732, 170.480865, 176.607834, 178.076981,
 177.665604, 180.851120, 181.802628, 182.024734, 182.365952, 185.888901, 191.699356, 197.403214, 203.038132, 207.235352,
 207.699402, 201.165070, 197.194000, 191.572906, 183.489822, 171.530655, 163.778732, 161.765762, 162.483521, 167.297073,
 162.819016, 157.766342, 159.979904, 153.877213, 149.914764, 151.455261, 161.582047, 166.525375, 165.294327, 160.716034,
 157.260925, 151.351776, 153.672287, 153.246826, 147.968094, 139.989029, 134.021790, 128.185608, 120.839691, 113.810745,
 109.365173, 106.647186, 104.591774, 102.807213, 102.002220, 101.488174, 99.907608, 100.775978, 100.968643, 101.029770,
 100.894791, 100.974266, 101.045403, 101.025452, 101.181183, 101.178078, 101.382057, 101.412018, 101.450081, 100.661652,
 96.434906, 97.152313, 99.856400, 104.234764, 112.183609, 120.679985, 129.624878, 136.140289, 138.960922, 140.314285,
 141.055725, 139.096237, 134.291428, 135.019455, 141.079895, 147.611145, 147.252808, 140.788177, 137.141983, 133.009201,
 137.803940, 141.138382, 145.207703, 147.651688, 151.751190, 155.623672, 159.302780, 159.283752, 159.281113, 158.961700,
 159.101700, 161.316589, 164.429916, 162.793564, 165.216797, 166.897766, 166.735184, 171.122269, 171.187927, 170.800201,
 173.753647, 175.720963, 173.180588, 178.231018, 185.099319, 190.467896, 195.141708, 199.933105, 205.995346, 213.328217,
 215.892960, 214.070282, 208.583420, 197.861435, 188.242508, 179.200485, 168.464539, 157.624939, 158.608215, 162.372421,
 159.641617, 152.292023, 155.575577, 149.587204, 146.530884, 148.235275, 159.764587, 160.662537, 157.847061, 152.961349,
 150.804733, 147.608688, 149.924149, 154.001617, 149.610825, 139.857849, 129.706833, 122.992088, 118.492447, 113.635712,
 109.999107, 106.829384, 104.533630, 102.500488, 101.274498, 100.892067, 100.661430, 100.742233, 101.006691, 100.784225,
 100.990341, 101.000595, 100.946106, 101.036163, 101.170914, 101.354408, 101.267097, 101.601006, 101.597702, 100.676353,
 96.490128, 97.793083, 101.567024, 106.920807, 111.320992, 118.088669, 127.687263, 136.250656, 140.252014, 142.219711,
 142.771530, 138.115112, 133.437286, 133.860962, 138.113861, 145.103134, 146.615875, 138.493515, 132.932266, 132.423325,