&HEAD CHID='sphere_test1', TITLE='test visualization of immersed geometry objects ' /

&MISC NOISE=F, FREEZE_VELOCITY=T /

&MESH IJK=20,20,20, XB=0.0,1.0,0.0,1.0,0.0,1.0 /
&MESH IJK=20,20,20, XB=1.0,2.0,0.0,1.0,0.0,1.0 /
&MESH IJK=20,20,20, XB=2.0,3.0,0.0,1.0,0.0,1.0 /

&INIT XB=0.0,1.0,0.0,1.0,0.0,1.0   TEMPERATURE=100.0 /
&INIT XB=1.0,2.0,0.0,1.0,0.0,1.0   TEMPERATURE=200.0 /
&INIT XB=2.0,3.0,0.0,1.0,0.0,1.0   TEMPERATURE=300.0 /

&TIME T_END=10 /
&RADI RADIATION=.FALSE. /

&MATL ID='STUFF', DENSITY=1000., CONDUCTIVITY=0.1, SPECIFIC_HEAT=1. /
&SURF ID='sphere', THICKNESS=1.E-6, MATL_ID='STUFF', GEOMETRY='SPHERICAL',
      HEAT_TRANSFER_COEFFICIENT=0 /

&PART ID='part1', SURF_ID='sphere', STATIC=.TRUE., 
      INITIAL_TEMPERATURE=100.,
      QUANTITIES(1:2)='PARTICLE DIAMETER','PARTICLE TEMPERATURE' /

&PART ID='part2', SURF_ID='sphere', STATIC=.TRUE., 
      INITIAL_TEMPERATURE=200.,
      QUANTITIES(1:2)='PARTICLE DIAMETER','PARTICLE TEMPERATURE' /

&PART ID='part3', SURF_ID='sphere', STATIC=.TRUE., 
      INITIAL_TEMPERATURE=300.,
      QUANTITIES(1:2)='PARTICLE DIAMETER','PARTICLE TEMPERATURE' /

&INIT PART_ID='part1', XB=0.0,0.25,0.0,0.5,0.7,1.0, 
   MASS_PER_VOLUME=0.01, N_PARTICLES_PER_CELL=10 /

&INIT PART_ID='part2', XB=1.0,1.25,0.0,0.5,0.7,1.0, 
   MASS_PER_VOLUME=0.01, N_PARTICLES_PER_CELL=10 /

&INIT PART_ID='part3', XB=2.0,2.25,0.0,0.5,0.7,1.0, 
   MASS_PER_VOLUME=0.01, N_PARTICLES_PER_CELL=10 /

&SURF ID='walls', ADIABATIC=T, DEFAULT=T/
&SURF ID='SPHERE1', COLOR='YELLOW', TMP_FRONT=100 /
&SURF ID='SPHERE2', COLOR='GREEN', TMP_FRONT=200 /
&SURF ID='SPHERE3', COLOR='BLUE', TMP_FRONT=300 /

&SLCF PBY=0.5, QUANTITY='BACKGROUND PRESSURE', CELL_CENTERED=T /
&SLCF PBY=0.5, QUANTITY='PRESSURE', CELL_CENTERED=T /

&SLCF PBX=0.5,   QUANTITY='TEMPERATURE', CELL_CENTERED=T, VECTOR=T /
&SLCF PBX=1.5,   QUANTITY='TEMPERATURE', CELL_CENTERED=T /
&SLCF PBX=2.5,   QUANTITY='TEMPERATURE', CELL_CENTERED=T /

&SLCF PBX=0.5,   QUANTITY='TEMPERATURE' /
&SLCF PBX=1.5,   QUANTITY='TEMPERATURE' /
&SLCF PBX=2.5,   QUANTITY='TEMPERATURE' /

&SLCF PBX=0.5,   QUANTITY='TEMPERATURE',  FACE_CENTERED=.TRUE., SLICETYPE='INCLUDE_GEOM', VECTOR=T  /
&SLCF PBX=1.5,   QUANTITY='TEMPERATURE',  FACE_CENTERED=.TRUE., SLICETYPE='INCLUDE_GEOM'    /
&SLCF PBX=2.5,   QUANTITY='TEMPERATURE',  FACE_CENTERED=.TRUE., SLICETYPE='INCLUDE_GEOM'    /

&SLCF PBY=0.5,   QUANTITY='TEMPERATURE',  FACE_CENTERED=.TRUE., SLICETYPE='INCLUDE_GEOM', VECTOR=T  /

&SLCF PBY=0.5,   QUANTITY='TEMPERATURE',  FACE_CENTERED=.TRUE., SLICETYPE='INCLUDE_GEOM'    /
&SLCF PBY=0.5,   QUANTITY='TEMPERATURE', CELL_CENTERED=T /

&BNDF QUANTITY='WALL TEMPERATURE' /
&BNDF QUANTITY='CONVECTIVE HEAT FLUX' /

&ISOF QUANTITY='TEMPERATURE',VALUE(1)=80.0 /
&ISOF QUANTITY='TEMPERATURE',VALUE(1)=180.0 /
&ISOF QUANTITY='TEMPERATURE',VALUE(1)=280.0 /

# Geometries:
&GEOM ID='sphere1', SURF_ID='SPHERE1', SPHERE_ORIGIN=0.5,0.5,0.5, SPHERE_RADIUS=0.3, N_LEVELS=3 /
&GEOM ID='sphere2', SURF_ID='SPHERE2', SPHERE_ORIGIN=1.5,0.5,0.5, SPHERE_RADIUS=0.3, N_LEVELS=3 /
&GEOM ID='sphere3', SURF_ID='SPHERE3', SPHERE_ORIGIN=2.5,0.5,0.5, SPHERE_RADIUS=0.3, N_LEVELS=3 /

&OBST XB=0.3,0.7,0.3,0.7,0.0,0.2, SURF_ID='SPHERE1' /
&OBST XB=1.3,1.7,0.3,0.7,0.0,0.2, SURF_ID='SPHERE2' /
&OBST XB=2.3,2.7,0.3,0.7,0.0,0.2, SURF_ID='SPHERE3' /

&DEVC XYZ=0.5,0.4,0.9, QUANTITY='TEMPERATURE' /
&DEVC XYZ=1.5,0.4,0.9, QUANTITY='TEMPERATURE' /
&DEVC XYZ=2.5,0.4,0.9, QUANTITY='TEMPERATURE' /


&TAIL /
