&HEAD CHID='soot_test2' /

&MESH IJK=50,50,50, XB=0,1,0,1,0,1/

&TIME T_END=10/
&DUMP NFRAMES=1000 DT_PL3D=8.0, DT_SL3D=0.01 /

&MISC STRATIFICATION=F/

&INIT XB=0,1,0,1,0,1  TEMPERATURE=300.0 /

&SPEC ID='SOOT', MASS_FRACTION_0=0.0001/
&INIT XB=0.3,0.7,0.3,0.7,0.3,0.7  TEMPERATURE=0.0 /

&INIT XB=0.3,0.7,0.3,0.7,0.3,0.7,  SPEC_ID='SOOT', MASS_FRACTION=0.1 /

&SLCF PBY=0.5, QUANTITY='MASS FRACTION', SPEC_ID='SOOT', CELL_CENTERED=T/
&SLCF PBY=0.5, QUANTITY='DENSITY', SPEC_ID='SOOT', CELL_CENTERED=T/
&SLCF XB=0.0,1.0,0.0,1.0,0.0,1.0, QUANTITY='TEMPERATURE',CELL_CENTERED=.TRUE.  / 3D slice
&SLCF XB=0.0,1.0,0.0,1.0,0.0,1.0, QUANTITY='DENSITY',SPEC_ID='SOOT',CELL_CENTERED=.TRUE.  / 3D slice
