&HEAD CHID='soot_test2' /

&MESH IJK=100,100,100, XB=0,1,0,1,0,1/

&TIME T_END=1/
&DUMP NFRAMES=400 DT_PL3D=8.0, DT_SL3D=0.01 /

&MISC STRATIFICATION=.FALSE./

&SPEC ID='SOOT', MASS_FRACTION_0=0.000/
&INIT XB=0.3,0.7,0.3,0.7,0.3,0.7,  TEMPERATURE=1000.0 /

&INIT XB=0.3,0.7,0.3,0.7,0.3,0.7,  SPEC_ID='SOOT', MASS_FRACTION=0.001 /

&SLCF PBY=0.5, QUANTITY='MASS FRACTION', SPEC_ID='SOOT', CELL_CENTERED=.TRUE./
&SLCF PBY=0.5, QUANTITY='DENSITY', SPEC_ID='SOOT', CELL_CENTERED=.TRUE./
&SLCF XB=0.0,1.0,0.0,1.0,0.0,1.0, QUANTITY='TEMPERATURE',CELL_CENTERED=.TRUE.  / 3D slice
&SLCF XB=0.0,1.0,0.0,1.0,0.0,1.0, QUANTITY='DENSITY',SPEC_ID='SOOT',CELL_CENTERED=.TRUE.  / 3D slice
