! Generated by BlenderFDS 6.0.0 on Blender 4.1.1
! Date: Fri, 03 Jan 2025, 11:15:26

--- Case from Blender Scene: <Example_case> | View Layer: <View Layer>

&HEAD CHID='cad_test' TITLE='This is an example case' /
&TIME T_END=10.0 /
&REAC FUEL='Example' FORMULA='C1H2O0.5' CO_YIELD=0.040 SOOT_YIELD=0.070
      HEAT_OF_COMBUSTION=20000.0 /
&DUMP RENDER_FILE='cad_test.ge1' /

--- Free text from Blender Text: <Text>

Insert here other non-geometrical namelists
&BNDF QUANTITY='WALL TEMPERATURE' /
&BNDF QUANTITY='BURNING RATE' /

--- Boundary conditions from Blender Materials

&SURF ID='Burner bc' RGB=255,0,0 HRRPUA=500.000 TAU_Q=1.0 /
&SURF ID='Example bc' RGB=204,166,111 /

--- Computational domain | MPI Processes: 1 | MESH Qty: 1 | Cell Qty: 8000

-- MPI Process: <0> | MESH Qty: 1 | Cell Qty: 8000
Cell Qty: 8000 | Size: 0.200·0.200·0.200m | Aspect: 1.0 | Poisson: Yes
&MESH IJK=20,20,20 XB=-2.000,2.000,-2.000,2.000,0.000,4.000 MPI_PROCESS=0 /

--- Geometric namelists from Blender Collections

-- Blender Collection: <Domain>
PB* Planes: 5
&VENT ID='Domain bcs_0' PBX=-2.000 SURF_ID='OPEN' /
&VENT ID='Domain bcs_1' PBX=2.000 SURF_ID='OPEN' /
&VENT ID='Domain bcs_2' PBY=-2.000 SURF_ID='OPEN' /
&VENT ID='Domain bcs_3' PBY=2.000 SURF_ID='OPEN' /
&VENT ID='Domain bcs_4' PBZ=4.000 SURF_ID='OPEN' /

-- Blender Collection: <Obstacles>
XB Pixels: 26 | Resolution: 0.100 m
&VENT ID='Burner_0' XB=0.300,0.400,1.300,1.400,2.010,2.010 SURF_ID='Burner bc' /
&VENT ID='Burner_1' XB=0.200,0.400,1.200,1.300,2.010,2.010 SURF_ID='Burner bc' /
&VENT ID='Burner_2' XB=-0.000,0.500,1.100,1.200,2.010,2.010 SURF_ID='Burner bc' /
&VENT ID='Burner_3' XB=-0.200,0.500,1.000,1.100,2.010,2.010 SURF_ID='Burner bc' /
&VENT ID='Burner_4' XB=-0.400,0.600,0.900,1.000,2.010,2.010 SURF_ID='Burner bc' /
&VENT ID='Burner_5' XB=-0.500,0.700,0.800,0.900,2.010,2.010 SURF_ID='Burner bc' /
&VENT ID='Burner_6' XB=-0.700,0.700,0.700,0.800,2.010,2.010 SURF_ID='Burner bc' /
&VENT ID='Burner_7' XB=-0.900,0.800,0.600,0.700,2.010,2.010 SURF_ID='Burner bc' /
&VENT ID='Burner_8' XB=-1.000,0.800,0.500,0.600,2.010,2.010 SURF_ID='Burner bc' /
&VENT ID='Burner_9' XB=-1.200,0.900,0.400,0.500,2.010,2.010 SURF_ID='Burner bc' /
&VENT ID='Burner_10' XB=-1.400,1.000,0.300,0.400,2.010,2.010 SURF_ID='Burner bc' /
&VENT ID='Burner_11' XB=-1.300,1.000,0.200,0.300,2.010,2.010 SURF_ID='Burner bc' /
&VENT ID='Burner_12' XB=-1.200,1.100,-0.000,0.200,2.010,2.010
      SURF_ID='Burner bc' /
&VENT ID='Burner_13' XB=-1.100,1.200,-0.200,-0.000,2.010,2.010
      SURF_ID='Burner bc' /
&VENT ID='Burner_14' XB=-1.000,1.300,-0.300,-0.200,2.010,2.010
      SURF_ID='Burner bc' /
&VENT ID='Burner_15' XB=-1.000,1.400,-0.400,-0.300,2.010,2.010
      SURF_ID='Burner bc' /
&VENT ID='Burner_16' XB=-0.900,1.200,-0.500,-0.400,2.010,2.010
      SURF_ID='Burner bc' /
&VENT ID='Burner_17' XB=-0.800,1.000,-0.600,-0.500,2.010,2.010
      SURF_ID='Burner bc' /
&VENT ID='Burner_18' XB=-0.800,0.900,-0.700,-0.600,2.010,2.010
      SURF_ID='Burner bc' /
&VENT ID='Burner_19' XB=-0.700,0.700,-0.800,-0.700,2.010,2.010
      SURF_ID='Burner bc' /
&VENT ID='Burner_20' XB=-0.700,0.500,-0.900,-0.800,2.010,2.010
      SURF_ID='Burner bc' /
&VENT ID='Burner_21' XB=-0.600,0.400,-1.000,-0.900,2.010,2.010
      SURF_ID='Burner bc' /
&VENT ID='Burner_22' XB=-0.500,0.200,-1.100,-1.000,2.010,2.010
      SURF_ID='Burner bc' /
&VENT ID='Burner_23' XB=-0.500,-0.000,-1.200,-1.100,2.010,2.010
      SURF_ID='Burner bc' /
&VENT ID='Burner_24' XB=-0.400,-0.200,-1.300,-1.200,2.010,2.010
      SURF_ID='Burner bc' /
&VENT ID='Burner_25' XB=-0.400,-0.300,-1.400,-1.300,2.010,2.010
      SURF_ID='Burner bc' /
XB Voxels: 26 | Resolution: 0.100 m
&OBST ID='Cube_0' XB=0.300,0.400,1.300,1.400,0.000,2.000 SURF_ID='Example bc' /
&OBST ID='Cube_1' XB=0.200,0.400,1.200,1.300,0.000,2.000 SURF_ID='Example bc' /
&OBST ID='Cube_2' XB=-0.000,0.500,1.100,1.200,0.000,2.000 SURF_ID='Example bc' /
&OBST ID='Cube_3' XB=-0.200,0.500,1.000,1.100,0.000,2.000 SURF_ID='Example bc' /
&OBST ID='Cube_4' XB=-0.400,0.600,0.900,1.000,0.000,2.000 SURF_ID='Example bc' /
&OBST ID='Cube_5' XB=-0.400,-0.200,-1.300,-1.200,0.000,2.000
      SURF_ID='Example bc' /
&OBST ID='Cube_6' XB=-0.400,-0.300,-1.400,-1.300,0.000,2.000
      SURF_ID='Example bc' /
&OBST ID='Cube_7' XB=-0.500,0.700,0.800,0.900,0.000,2.000 SURF_ID='Example bc' /
&OBST ID='Cube_8' XB=-0.500,0.200,-1.100,-1.000,0.000,2.000 SURF_ID='Example bc' /
&OBST ID='Cube_9' XB=-0.500,-0.000,-1.200,-1.100,0.000,2.000
      SURF_ID='Example bc' /
&OBST ID='Cube_10' XB=-0.600,0.400,-1.000,-0.900,0.000,2.000
      SURF_ID='Example bc' /
&OBST ID='Cube_11' XB=-0.700,0.700,0.700,0.800,0.000,2.000 SURF_ID='Example bc' /
&OBST ID='Cube_12' XB=-0.700,0.700,-0.800,-0.700,0.000,2.000
      SURF_ID='Example bc' /
&OBST ID='Cube_13' XB=-0.700,0.500,-0.900,-0.800,0.000,2.000
      SURF_ID='Example bc' /
&OBST ID='Cube_14' XB=-0.800,1.000,-0.600,-0.500,0.000,2.000
      SURF_ID='Example bc' /
&OBST ID='Cube_15' XB=-0.800,0.900,-0.700,-0.600,0.000,2.000
      SURF_ID='Example bc' /
&OBST ID='Cube_16' XB=-0.900,0.800,0.600,0.700,0.000,2.000 SURF_ID='Example bc' /
&OBST ID='Cube_17' XB=-0.900,1.200,-0.500,-0.400,0.000,2.000
      SURF_ID='Example bc' /
&OBST ID='Cube_18' XB=-1.000,0.800,0.500,0.600,0.000,2.000 SURF_ID='Example bc' /
&OBST ID='Cube_19' XB=-1.000,1.300,-0.300,-0.200,0.000,2.000
      SURF_ID='Example bc' /
&OBST ID='Cube_20' XB=-1.000,1.400,-0.400,-0.300,0.000,2.000
      SURF_ID='Example bc' /
&OBST ID='Cube_21' XB=-1.100,1.200,-0.200,-0.000,0.000,2.000
      SURF_ID='Example bc' /
&OBST ID='Cube_22' XB=-1.200,0.900,0.400,0.500,0.000,2.000 SURF_ID='Example bc' /
&OBST ID='Cube_23' XB=-1.200,1.100,-0.000,0.200,0.000,2.000 SURF_ID='Example bc' /
&OBST ID='Cube_24' XB=-1.300,1.000,0.200,0.300,0.000,2.000 SURF_ID='Example bc' /
&OBST ID='Cube_25' XB=-1.400,1.000,0.300,0.400,0.000,2.000 SURF_ID='Example bc' /

-- Blender Collection: <Output>
&SLCF ID='Temp slice' QUANTITY='TEMPERATURE' VECTOR=T CELL_CENTERED=T PBX=0.000 /

&TAIL /



