&HEAD CHID='color_geom', TITLE='color' /
#Mesh
&MESH XB= 0.0, 83.0, 0.0, 34.0, 0.0, 9.0, IJK= 80, 35, 36 /

&TIME T_END=0. /
&SURF ID='WALL', RGB=255,0,0 /
&GEOM ID='Wall_1', SURF_ID='WALL',
VERTS=
9.0,  5.0, 0.0,
9.0,  5.0, 3.5,
39.0, 20.0, 3.5,
39.0, 20.0, 0.0
POLY=1, 2, 3, 4,
EXTRUDE=10.0
COLOR='BLACK' /

&GEOM ID='Wall_2', SURF_ID='WALL',
VERTS=
48.0, 5.0, 0.0,
48.0, 5.0, 3.5,
78.0, 20.0, 3.5,
78.0, 20.0, 0.0
POLY=1, 2, 3, 4,
EXTRUDE=10.0
 /

&TAIL /