&HEAD CHID='color_obst', TITLE='color' /
#Mesh
&MESH XB= 0.0, 83.0, 0.0, 34.0, 0.0, 9.0, IJK= 80, 35, 36 /

&TIME T_END=0. /
&SURF ID='WALL', RGB=255,0,0 /
&OBST XB=5.0,38.0,5.0,29.0,0.0,3.5, SURF_ID='WALL', COLOR='BLACK' /
&OBST XB=44.0,78.0,5.0,29.0,0.0,3.5, SURF_ID='WALL' /

&TAIL /