&HEAD CHID='obst_test' /

&MESH IJK=10,10,10, XB=0.0,1.0,0.0,1.0,0.0,1.0/

&TIME T_END=10./

&MISC TMPA=30., BNDF_DEFAULT=F/

&SURF ID='surf1', COLOR='BLACK'/
&SURF ID='surf2', COLOR='CYAN'/
&SURF ID='surf3', COLOR='PURPLE'/
&SURF ID='surf4', COLOR='PINK'/

&OBST XB=0.2,0.4,0.2,0.4,0.2,0.4, SURF_ID='surf1', BNDF_OBST=T/
&OBST XB=0.6,0.8,0.2,0.4,0.2,0.4, SURF_ID='surf2' /
&VENT XB=0.0,1.0,0.0,1.0,0.0,0.0, SURF_ID='surf3' /
&VENT XB=0.0,0.0,0.3,0.7,0.3,0.7, SURF_ID='surf4' /
&BNDF QUANTITY='BACK WALL TEMPERATURE', CELL_CENTERED=T/

&TAIL /
