&HEAD CHID='obst_test3' /

&MESH IJK=5,5,5, XB=0.0,0.5,0.0,0.5,0.0,0.5/
&MESH IJK=5,5,5, XB=0.0,0.5,0.0,0.5,0.5,1.0/
&MESH IJK=5,5,5, XB=0.0,0.5,0.5,1.0,0.0,0.5/
&MESH IJK=5,5,5, XB=0.0,0.5,0.5,1.0,0.5,1.0/
&MESH IJK=5,5,5, XB=0.5,1.0,0.0,0.5,0.0,0.5/
&MESH IJK=5,5,5, XB=0.5,1.0,0.0,0.5,0.5,1.0/
&MESH IJK=5,5,5, XB=0.5,1.0,0.5,1.0,0.0,0.5/
&MESH IJK=5,5,5, XB=0.5,1.0,0.5,1.0,0.5,1.0/

&TIME T_END=10./

&MISC TMPA=30., BNDF_DEFAULT=F/

&MATL ID                    = 'FOAM'
      FYI                   = 'Properties completely fabricated'
      SPECIFIC_HEAT         = 1.0
      CONDUCTIVITY          = 0.05
      DENSITY               = 40.0
      N_REACTIONS           = 1
      NU_SPEC               = 1.
      SPEC_ID               = 'PROPANE'
      REFERENCE_TEMPERATURE = 350.
      HEAT_OF_REACTION      = 1500.
      HEAT_OF_COMBUSTION    = 30000. /

&SURF ID             = 'surf1'
      FYI            = 'Properties completely fabricated'
      RGB            = 151,96,88
      BURN_AWAY      = .FALSE.
      MATL_ID = 'FOAM',
      THICKNESS = 0.1,
      COLOR='BLACK'
/

&REAC SOOT_YIELD=0.01,FUEL='PROPANE'/
&SURF ID='BURNER',HRRPUA=600.0 /  Ignition source

&OBST XB=0.3,0.7,0.3,0.7,0.0,0.1 /
&VENT XB=0.3,0.7,0.3,0.7,0.1,0.1, SURF_ID='BURNER' /

&OBST XB=0.5,0.8,0.5,0.8,0.5,0.8, SURF_ID='surf1', BNDF_OBST=T /

&BNDF QUANTITY='WALL TEMPERATURE', CELL_CENTERED=T/

&TAIL /
