&HEAD CHID='part_test',TITLE='Particle case' /

&TIME T_END=10. /

&MESH IJK=8,8,4, XB=0.0,8.0,0.0,8.0,0.0,4.0 /
&MESH IJK=8,8,4, XB=8.0,16.,0.0,8.0,0.0,4.0 /
&MESH IJK=8,8,4, XB=0.0,8.0,8.0,16.,0.0,4.0 /
&MESH IJK=8,8,4, XB=8.0,16.,8.0,16.,0.0,4.0 /

&MISC IBLANK_SMV=.TRUE. /

&DUMP NFRAMES=400 DT_PL3D=8.0, DT_SL3D=0.1 /

&INIT PART_ID='SCREEN1', XB=0.0,8.0,0.0,8.0,0.0,4.0  N_PARTICLES_PER_CELL=1, CELL_CENTERED=.TRUE. /
&INIT PART_ID='SCREEN2', XB=8.0,16.,0.0,8.0,0.0,4.0  N_PARTICLES_PER_CELL=1, CELL_CENTERED=.TRUE. /
&INIT PART_ID='SCREEN3', XB=0.0,8.0,8.0,16.,0.0,4.0  N_PARTICLES_PER_CELL=1, CELL_CENTERED=.TRUE. /
&INIT PART_ID='SCREEN4', XB=8.0,16.,8.0,16.,0.0,4.0  N_PARTICLES_PER_CELL=1, CELL_CENTERED=.TRUE. /

&PART ID='SCREEN1', STATIC=T, SURF_ID='SURF1', QUANTITIES(1)='PARTICLE TEMPERATURE' /
&PART ID='SCREEN2', STATIC=T, SURF_ID='SURF2', QUANTITIES(1)='PARTICLE TEMPERATURE' /
&PART ID='SCREEN3', STATIC=T, SURF_ID='SURF3', QUANTITIES(1)='PARTICLE TEMPERATURE' /
&PART ID='SCREEN4', STATIC=T, SURF_ID='SURF4', QUANTITIES(1)='PARTICLE TEMPERATURE' /

&SURF ID='WALL', RGB=128,128,128 /
&OBST XB=7.0,9.0,0.0,16.,0.0,4.0, SURF_ID='WALL' /
&OBST XB=0.0,16.,7.0,9.0,0.0,4.0, SURF_ID='WALL' /

&SURF ID='SURF1', RADIUS=0.015, GEOMETRY='SPHERICAL', TMP_FRONT=100. /
&SURF ID='SURF2', RADIUS=0.015, GEOMETRY='SPHERICAL', TMP_FRONT=200. /
&SURF ID='SURF3', RADIUS=0.015, GEOMETRY='SPHERICAL', TMP_FRONT=300. /
&SURF ID='SURF4', RADIUS=0.015, GEOMETRY='SPHERICAL', TMP_FRONT=400. /

&TAIL /
