&HEAD CHID='part_test',TITLE='Particle case' /

&TIME T_END=10. /

&MESH IJK=8,8,4, XB=0.0,8.0,0.0,8.0,0.0,4.0 /
&MESH IJK=8,8,4, XB=8.0,16.,0.0,8.0,0.0,4.0 /
&MESH IJK=8,8,4, XB=0.0,8.0,8.0,16.,0.0,4.0 /
&MESH IJK=8,8,4, XB=8.0,16.,8.0,16.,0.0,4.0 /

&MISC HRRPUV_MAX_SMV=1300.0,IBLANK_SMV=.TRUE. /

&DUMP NFRAMES=400 DT_PL3D=8.0, DT_SL3D=0.1 /

&INIT PART_ID='SCREEN1', XB=0.0,8.0,0.0,8.0,0.0,4.0  N_PARTICLES_PER_CELL=1, CELL_CENTERED=.TRUE., TEMPERATURE=300.0 /
&INIT PART_ID='SCREEN2', XB=8.0,16.,0.0,8.0,0.0,4.0  N_PARTICLES_PER_CELL=1, CELL_CENTERED=.TRUE., TEMPERATURE=400.0 /
&INIT PART_ID='SCREEN3', XB=0.0,8.0,8.0,16.,0.0,4.0  N_PARTICLES_PER_CELL=1, CELL_CENTERED=.TRUE., TEMPERATURE=500.0 /
&INIT PART_ID='SCREEN4', XB=8.0,16.,8.0,16.,0.0,4.0  N_PARTICLES_PER_CELL=1, CELL_CENTERED=.TRUE., TEMPERATURE=600.0 /

&PART ID='SCREEN1', DRAG_LAW='SCREEN', FREE_AREA_FRACTION=0.4, STATIC=.TRUE., SURF_ID='SCREEN', 
    QUANTITIES(1:4)='U-VELOCITY','V-VELOCITY','W-VELOCITY','PARTICLE TEMPERATURE', ORIENTATION(1:3,1)=1,0,0 /
&PART ID='SCREEN2', DRAG_LAW='SCREEN', FREE_AREA_FRACTION=0.4, STATIC=.TRUE., SURF_ID='SCREEN', 
    QUANTITIES(1:4)='U-VELOCITY','V-VELOCITY','W-VELOCITY','PARTICLE TEMPERATURE', ORIENTATION(1:3,1)=1,0,0 /
&PART ID='SCREEN3', DRAG_LAW='SCREEN', FREE_AREA_FRACTION=0.4, STATIC=.TRUE., SURF_ID='SCREEN', 
    QUANTITIES(1:4)='U-VELOCITY','V-VELOCITY','W-VELOCITY','PARTICLE TEMPERATURE', ORIENTATION(1:3,1)=1,0,0 /
&PART ID='SCREEN4', DRAG_LAW='SCREEN', FREE_AREA_FRACTION=0.4, STATIC=.TRUE., SURF_ID='SCREEN', 
    QUANTITIES(1:4)='U-VELOCITY','V-VELOCITY','W-VELOCITY','PARTICLE TEMPERATURE', ORIENTATION(1:3,1)=1,0,0 /

&SURF ID='WALL', RGB=128,128,128 /
&OBST XB=7.0,9.0,0.0,16.,0.0,4.0, SURF_ID='WALL' /
&OBST XB=0.0,16.,7.0,9.0,0.0,4.0, SURF_ID='WALL' /


&SURF ID='SCREEN', THICKNESS=0.00015, GEOMETRY='CYLINDRICAL',MATL_ID='ALUMINUM' /
&MATL ID='ALUMINUM', DENSITY=2700., CONDUCTIVITY=200., SPECIFIC_HEAT=0.9 /


 Z slices

&SLCF PBZ=2.0,QUANTITY='TEMPERATURE',VECTOR=.TRUE. /
&SLCF PBZ=2.0,QUANTITY='TEMPERATURE',CELL_CENTERED=.TRUE. /

 3d slices

&SLCF XB=0.0,16.,0.0,16.,0.0,4.0, QUANTITY='TEMPERATURE' ,VECTOR=.TRUE. /
&SLCF XB=0.0,16.,0.0,16.,0.0,4.0, QUANTITY='TEMPERATURE',CELL_CENTERED=.TRUE.  / 3D slice


&TAIL /
