&HEAD CHID='smoke_test_geom', TITLE='Verify Smokeview Smoke3D Feature' /
  
&MESH IJK=100,64,40, XB=0.0,10.0,0.0,6.4,0.0,4.0 /

&TIME T_END=0.0 /

&SPEC ID='SOOT'/
INIT XB=0.0,10.0,0.0,6.4,0.0,4.0,MASS_FRACTION=0.00007967,SPEC_ID='SOOT' /
&INIT XB=0.0,10.0,0.0,6.4,0.0,4.0,MASS_FRACTION=0.00006836,SPEC_ID='SOOT' /

&OBST XB=0.0,2.6, 0.4,0.6,0.0,4.0, RGB=255,255,255 / 
&OBST XB=0.0,4.0, 1.0,1.2,0.0,4.0, RGB=255,255,255 / 
&OBST XB=0.0,5.6, 2.0,2.2,0.0,4.0, RGB=255,255,255 / 
&OBST XB=0.0,7.0, 3.0,3.2,0.0,4.0, RGB=255,255,255 / 
&OBST XB=0.0,8.6, 4.0,4.2,0.0,4.0, RGB=255,255,255 / 
&OBST XB=0.0,10.0,5.0,5.2,0.0,4.0, RGB=255,255,255 / 

&TAIL /

