&HEAD CHID='test360',TITLE='Plume whirl case' /

  same as plume5a except there is a blockage in the middle of the scene to block the flow
  The purpose of this case is to demonstrate the curved flow (via streak lines) that results.

&MESH IJK=20,20,20, XB=0.0,10.0,0.0,10.0,0.0,10.0 /

&MISC IBLANK_SMV=.TRUE. /

&DUMP NFRAMES=400 DT_PL3D=8.0, DT_SL3D=0.1 /

&INIT XB=0.2,1.4,0.2,1.4,0.5,2.2  TEMPERATURE=600.0 /

&TIME T_END=0. /  Total simulation time

&SURF ID             = 'TOP',    RGB=255,  0,  0 /
&SURF ID             = 'BOTTOM', RGB=  0,255,  0 /
&SURF ID             = 'RIGHT',  RGB=  0,  0,255 /
&SURF ID             = 'LEFT',   RGB=255,255,  0 /
&SURF ID             = 'FRONT',  RGB=255,  0,255 /
&SURF ID             = 'BACK',   RGB=  0,255,255 /

&VENT XB= 0.0,10.0, 0.0,10.0,10.0,10.0 SURF_ID='TOP' /
&VENT XB= 0.0,10.0, 0.0,10.0, 0.0, 0.0 SURF_ID='BOTTOM' /

&VENT XB=10.0,10.0, 0.0,10.0, 0.0,10.0 SURF_ID='RIGHT' /
&VENT XB= 0.0, 0.0, 0.0,10.0, 0.0,10.0 SURF_ID='LEFT' /

&VENT XB= 0.0,10.0, 0.0, 0.0, 0.0,10.0 SURF_ID='FRONT' /
&VENT XB= 0.0,10.0,10.0,10.0, 0.0,10.0 SURF_ID='BACK' /

&TAIL /
