&HEAD CHID='test360',TITLE='test 360 rendering' /

&MESH IJK=20,20,20, XB=0.0,10.0,0.0,10.0,0.0,10.0 /

&MISC IBLANK_SMV=.TRUE. /

&DUMP NFRAMES=400 DT_PL3D=8.0, DT_SL3D=0.1 /

&INIT XB=0.2,1.4,0.2,1.4,0.5,2.2  TEMPERATURE=600.0 /

&TIME T_END=0. /  Total simulation time

&SURF ID             = 'TOP',    RGB=255,  0,  0 /
&SURF ID             = 'BOTTOM', RGB=  0,255,  0 /
&SURF ID             = 'RIGHT',  RGB=  0,  0,255 /
&SURF ID             = 'LEFT',   RGB=255,255,  0 /
&SURF ID             = 'FRONT',  RGB=255,  0,255 /
&SURF ID             = 'BACK',   RGB=  0,255,255 /

&SURF ID             = 'WHITE'   RGB=255,255,255 /
&SURF ID             = 'BLACK'   RGB=  0,  0,  0 /
&SURF ID             = 'GRAY'    RGB=128,128,128 /

&OBST XB=0.0,4.0,8.0,10.0,2.0,4.0, SURF_ID6='WHITE','WHITE','BLACK','BLACK','GRAY','GRAY' /
&VENT XB= 0.0,10.0, 0.0,10.0,10.0,10.0 SURF_ID='TOP' /
&VENT XB= 0.0,10.0, 0.0,10.0, 0.0, 0.0 SURF_ID='BOTTOM' /

&VENT XB=10.0,10.0, 0.0,10.0, 0.0,10.0 SURF_ID='RIGHT' /
&VENT XB= 0.0, 0.0, 0.0,10.0, 0.0,10.0 SURF_ID='LEFT' /

&VENT XB= 0.0,10.0, 0.0, 0.0, 0.0,10.0 SURF_ID='FRONT' /
&VENT XB= 0.0,10.0,10.0,10.0, 0.0,10.0 SURF_ID='BACK' /

&TAIL /
