&HEAD CHID='test1'/
&TIME T_END=19.0/
&DUMP DT_RESTART=10.0/

&MISC RESTART=T/

&MESH ID='Mesh01', IJK=20,20,20, XB=0.0,1.0,0.0,1.0,0.0,1.0/
&MESH ID='Mesh02', IJK=20,20,20, XB=1.0,2.0,0.0,1.0,0.0,1.0/

&REAC ID='FDS6 ACETYLENE',
FYI='FDS6 Predefined',
FUEL='ACETYLENE',
SOOT_YIELD=0.1/

&MATL ID                    = 'FOAM'
      FYI                   = 'Properties completely fabricated'
      SPECIFIC_HEAT         = 1.0
      CONDUCTIVITY          = 0.05
      DENSITY               = 40.0
      N_REACTIONS           = 1
      NU_SPEC               = 1.
      SPEC_ID               = 'ACETYLENE'
      REFERENCE_TEMPERATURE = 350.
      HEAT_OF_REACTION      = 1500.
      HEAT_OF_COMBUSTION    = 30000. /

&SURF ID             = 'UPHOLSTERY'
      FYI            = 'Properties completely fabricated'
      RGB            = 151,96,88
      BURN_AWAY      = .FALSE.
      MATL_ID(1:1,1) = 'FOAM'
      THICKNESS(1:2) = 0.002,0.1 
/


&RAMP ID='Control1_RAMP', T=0.0, F=1.0/
&RAMP ID='Control1_RAMP', T=10.00, F=1.0/
&RAMP ID='Control1_RAMP', T=10.05, F=-1.0/
&RAMP ID='Control1_RAMP', T=20.25, F=-1.0/
&CTRL ID='Control1', FUNCTION_TYPE='CUSTOM', RAMP_ID='Control1_RAMP', LATCH=.FALSE., INPUT_ID='TIME'/
&DEVC ID='TIME', QUANTITY='TIME', XYZ=0.0,0.0,0.0/

&ISOF QUANTITY='TEMPERATURE',VALUE(1)=620.0 /  Show 3D contours of temperature at 620 C

&PART ID='tracers',MASSLESS=.TRUE.,
   QUANTITIES(1:3)='PARTICLE U','PARTICLE V','PARTICLE W'
   SAMPLING_FACTOR=10 /  Description of massless tracer particles. Apply at a
                                                             solid surface with the PART_ID='tracers'

&SURF ID='Surface01',
COLOR='RED',
HRRPUA=1000.0,
TMP_FRONT=300.0, PART_ID='tracers'/

&OBST XB=0.2,1.8,0.4,0.6,0.2,0.4 SURF_ID='UPHOLSTERY' /

&SLCF PBY=0.5 QUANTITY='TEMPERATURE' /
&BNDF QUANTITY='WALL_TEMPERATURE' /

&VENT ID='Mesh Vent: Mesh01 [XMIN]', SURF_ID='OPEN', XB=0.0,0.0,0.0,1.0,0.0,1.0/
&VENT ID='Mesh Vent: Mesh01 [YMAX]', SURF_ID='OPEN', XB=0.0,1.0,1.0,1.0,0.0,1.0/
&VENT ID='Mesh Vent: Mesh01 [YMIN]', SURF_ID='OPEN', XB=0.0,1.0,0.0,0.0,0.0,1.0/
&VENT ID='Mesh Vent: Mesh01 [ZMAX]', SURF_ID='OPEN', XB=0.0,1.0,0.0,1.0,1.0,1.0/
&VENT ID='Mesh Vent: Mesh01 [ZMIN]', SURF_ID='Surface01', XB=0.3,0.6,0.3,0.6,0.0,0.0/
&VENT ID='Mesh Vent: Mesh02 [XMAX]', SURF_ID='OPEN', XB=2.0,2.0,0.0,1.0,0.0,1.0/
&VENT ID='Mesh Vent: Mesh02 [YMAX]', SURF_ID='OPEN', XB=1.0,2.0,1.0,1.0,0.0,1.0/
&VENT ID='Mesh Vent: Mesh02 [YMIN]', SURF_ID='OPEN', XB=1.0,2.0,0.0,0.0,0.0,1.0/
&VENT ID='Mesh Vent: Mesh02 [ZMAX]', SURF_ID='OPEN', XB=1.0,2.0,0.0,1.0,1.0,1.0/
&VENT ID='Mesh Vent: Mesh02 [ZMIN]', SURF_ID='Surface01', XB=1.3,1.9,0.1,0.6,0.0,0.0, CTRL_ID='Control1'/

&TAIL /
