&HEAD CHID='test100',TITLE='test' /

&MESH IJK=2,2,2, XB=0.0,0.1,0.0,0.1,0.0,1.0, MULT_ID='mesh'/
&MULT ID='mesh', DX=0.1, DY=0.1, DZ=1.0, I_UPPER=10, J_UPPER=10, K_UPPER=1 /

&MISC FREEZE_VELOCITY=T/

&TIME T_END=1. /  Total simulation time

&RADI RADIATION=.FALSE. /
&VENT MB='XMIN',SURF_ID='OPEN'/
&VENT MB='XMAX',SURF_ID='OPEN'/
&VENT MB='YMIN',SURF_ID='OPEN'/
&VENT MB='YMAX',SURF_ID='OPEN'/
&VENT MB='ZMAX',SURF_ID='OPEN'/

&SLCF PBZ=0.5,QUANTITY='TEMPERATURE',VECTOR=.TRUE. /

&TAIL /
