&HEAD CHID='test400',TITLE='test' /

&MESH IJK=4,4,4, XB=0.0,0.05,0.0,0.05,0.0,1.0, MULT_ID='mesh'/
&MULT ID='mesh', DX=0.05, DY=0.05, DZ=1.0, I_UPPER=20, J_UPPER=20, K_UPPER=1 /

&MISC FREEZE_VELOCITY=T/

&TIME T_END=1. /  Total simulation time

&RADI RADIATION=.FALSE. /
&VENT MB='XMIN',SURF_ID='OPEN'/
&VENT MB='XMAX',SURF_ID='OPEN'/
&VENT MB='YMIN',SURF_ID='OPEN'/
&VENT MB='YMAX',SURF_ID='OPEN'/
&VENT MB='ZMAX',SURF_ID='OPEN'/

&SLCF PBZ=0.5,QUANTITY='TEMPERATURE',VECTOR=.TRUE. /

&TAIL /
