&HEAD CHID='face_test' /

&TIME T_END=60.0/

&MESH IJK=10,10,10, XB=0.0,0.3,0.0,0.4,0.0,0.5, MULT_ID='mesh' /
&MULT ID='mesh', DX=0.3, DY=0.4, DZ=0.5, I_UPPER=1, J_UPPER=1, K_UPPER=1 /

&RADI RADIATION=T /

&SURF ID='WALL',
      COLOR='GRAY 80',
      HEAT_TRANSFER_COEFFICIENT=0.
      TMP_FRONT=20. /

&VENT PBX= 0., SURF_ID='WALL' /
&VENT PBX= 0.6, SURF_ID='OPEN' /
&VENT PBY= 0., SURF_ID='PERIODIC' /
&VENT PBY= 0.8, SURF_ID='PERIODIC' /
&VENT PBZ=1., SURF_ID='OPEN' /

&TAIL /

