&HEAD CHID='hvac_test2'/

&MESH XB=0,1,0,1,0,1,IJK=10,10,10/

&TIME T_END=10/

&SPEC ID='MYSPEC',MW=24.055,SPECIFIC_HEAT=1,BACKGROUND=T/
&SPEC ID='MYSPEC2',MW=24.055,SPECIFIC_HEAT=1/

&DUMP NFRAMES=20/

&SLCF PBY=0.5, QUANTITY='TEMPERATURE' /
&SLCF PBY=0.5, QUANTITY='U-VELOCITY' /
&SLCF PBY=0.5, QUANTITY='V-VELOCITY' /
&SLCF PBY=0.5, QUANTITY='W-VELOCITY' /

&INIT XB=0,0.5,0,1,0,1,MASS_FRACTION(1)=1,SPEC_ID(1)='MYSPEC2'/

&VENT XB=0,0,0.4,0.6,0.1,0.3,SURF_ID='HVAC',COLOR='RED',ID='I'/
&VENT XB=1,1,0.1,0.3,0.7,0.9,SURF_ID='HVAC',COLOR='BLUE',ID='O1'/
&VENT XB=1,1,0.7,0.9,0.7,0.9,SURF_ID='HVAC',COLOR='GREEN',ID='O2'/
&VENT XB=0,0,0.4,0.6,0.7,0.9,SURF_ID='INERT',COLOR='ORANGE',ID='L1'/

&VENT XB=0.4,0.7,0,0,0.4,0.7,SURF_ID='HVAC',COLOR='BLACK',ID='V1'/
&VENT XB=0.4,0.7,1,1,0.4,0.7,SURF_ID='HVAC',COLOR='WHITE',ID='V2'/

&HVAC ID='NI',TYPE_ID='NODE',DUCT_ID='I1',VENT_ID='I',LOSS=1,1/
&HVAC ID='NO1',TYPE_ID='NODE',DUCT_ID='O1',VENT_ID='O1',LOSS=1,1/
&HVAC ID='NO2',TYPE_ID='NODE',DUCT_ID='O2',VENT_ID='O2',LOSS=1,1/
&HVAC ID='NF',TYPE_ID='NODE',DUCT_ID='I1','I2',XYZ=-0.2,0.5,0.2,FILTER_ID='Fi1',LOSS=1,1/
&HVAC ID='NT',TYPE_ID='NODE',DUCT_ID='I2','O1','O2',XYZ=-0.2,0.5,0.8/

&HVAC ID='I1',TYPE_ID='DUCT',AREA=0.04,FAN_ID='Fa1', NODE_ID='NI','NF',N_CELLS=10/
&HVAC ID='I2',TYPE_ID='DUCT',LENGTH=0.6,AREA=0.04,NODE_ID='NF','NT',N_CELLS=10/
&HVAC ID='O1',TYPE_ID='DUCT',AREA=0.04,DAMPER=T,DEVC_ID='T2',NODE_ID='NT','NO1',WAYPOINTS(1,1:3)=-0.2,-0.1,0.8,WAYPOINTS(2,1:3)=0.5,-0.1,0.8,N_CELLS=10/
&HVAC ID='O2',TYPE_ID='DUCT',LENGTH=1.3,AREA=0.04,AIRCOIL_ID='A1',DEVC_ID='T3',NODE_ID='NT','NO2',N_CELLS=10/

&HVAC ID='L',TYPE_ID='LEAK',VENT_ID='L1',VENT2_ID='AMBIENT',AREA=0.0001/

&HVAC ID='Fi1',TYPE_ID='FILTER'/
&HVAC ID='Fa1',TYPE_ID='FAN',VOLUME_FLOW=0.04/
&HVAC ID='A1',TYPE_ID='AIRCOIL',FIXED_Q=0.04,TAU_AC=0/

&HVAC ID='V1',TYPE_ID='NODE',DUCT_ID='V',VENT_ID='V1',LOSS=1,1,NETWORK_ID='V'/
&HVAC ID='V2',TYPE_ID='NODE',DUCT_ID='V',VENT_ID='V2',LOSS=1,1,NETWORK_ID='V'/
&HVAC ID='V',TYPE_ID='DUCT',NODE_ID='V1','V2',LENGTH=1,AREA=0.04/

&HVAC TYPE_ID='NODE QUANTITY LIST',QUANTITY='NODE TEMPERATURE','NODE MASS FRACTION',QUANTITY_SPEC_ID(2)='MYSPEC'/
&HVAC TYPE_ID='DUCT QUANTITY LIST',QUANTITY='DUCT TEMPERATURE','DUCT MASS FRACTION','DUCT VELOCITY',QUANTITY_SPEC_ID(2)='MYSPEC'/

&DEVC XYZ=0.5,0.5,0.5,QUANTITY='TIME',ID='T2',SETPOINT=4/
&DEVC XYZ=0.5,0.5,0.5,QUANTITY='TIME',ID='T3',SETPOINT=6/

&DEVC QUANTITY='DUCT TEMPERATURE',DUCT_ID='I1',ID='I1'/
&DEVC QUANTITY='DUCT TEMPERATURE',DUCT_ID='I2',ID='I2'/
&DEVC QUANTITY='DUCT TEMPERATURE',DUCT_ID='O1',ID='O1'/
&DEVC QUANTITY='DUCT TEMPERATURE',DUCT_ID='O2',ID='O2'/
&DEVC QUANTITY='DUCT TEMPERATURE',DUCT_ID='L',ID='L'/
&DEVC QUANTITY='DUCT TEMPERATURE',DUCT_ID='V',ID='V'/

&DEVC QUANTITY='DUCT MASS FRACTION',SPEC_ID='MYSPEC',DUCT_ID='I1',ID='I1'/
&DEVC QUANTITY='DUCT MASS FRACTION',SPEC_ID='MYSPEC',DUCT_ID='I2',ID='I2'/
&DEVC QUANTITY='DUCT MASS FRACTION',SPEC_ID='MYSPEC',DUCT_ID='O1',ID='O1'/
&DEVC QUANTITY='DUCT MASS FRACTION',SPEC_ID='MYSPEC',DUCT_ID='O2',ID='O2'/
&DEVC QUANTITY='DUCT MASS FRACTION',SPEC_ID='MYSPEC',DUCT_ID='L',ID='L'/
&DEVC QUANTITY='DUCT MASS FRACTION',SPEC_ID='MYSPEC',DUCT_ID='V',ID='V'/

&DEVC QUANTITY='DUCT VELOCITY',DUCT_ID='I1',ID='I1'/
&DEVC QUANTITY='DUCT VELOCITY',DUCT_ID='I2',ID='I2'/
&DEVC QUANTITY='DUCT VELOCITY',DUCT_ID='O1',ID='O1'/
&DEVC QUANTITY='DUCT VELOCITY',DUCT_ID='O2',ID='O2'/
&DEVC QUANTITY='DUCT VELOCITY',DUCT_ID='L',ID='L'/
&DEVC QUANTITY='DUCT VELOCITY',DUCT_ID='V',ID='V'/

&DEVC QUANTITY='NODE TEMPERATURE',NODE_ID='NI',ID='NI'/
&DEVC QUANTITY='NODE TEMPERATURE',NODE_ID='NO1',ID='NO'/
&DEVC QUANTITY='NODE TEMPERATURE',NODE_ID='NO2',ID='NO2'/
&DEVC QUANTITY='NODE TEMPERATURE',NODE_ID='NF',ID='NF'/
&DEVC QUANTITY='NODE TEMPERATURE',NODE_ID='NT',ID='NT'/
&DEVC QUANTITY='NODE TEMPERATURE',NODE_ID='L1'/
&DEVC QUANTITY='NODE TEMPERATURE',NODE_ID='L1 AMB'/
&DEVC QUANTITY='NODE TEMPERATURE',NODE_ID='V1'/
&DEVC QUANTITY='NODE TEMPERATURE',NODE_ID='V2'/

&DEVC QUANTITY='NODE MASS FRACTION',SPEC_ID='MYSPEC',NODE_ID='NI',ID='NI'/
&DEVC QUANTITY='NODE MASS FRACTION',SPEC_ID='MYSPEC',NODE_ID='NO1',ID='NO1'/
&DEVC QUANTITY='NODE MASS FRACTION',SPEC_ID='MYSPEC',NODE_ID='NO2',ID='NO2'/
&DEVC QUANTITY='NODE MASS FRACTION',SPEC_ID='MYSPEC',NODE_ID='NF',ID='NF'/
&DEVC QUANTITY='NODE MASS FRACTION',SPEC_ID='MYSPEC',NODE_ID='NT',ID='NT'/
&DEVC QUANTITY='NODE MASS FRACTION',SPEC_ID='MYSPEC',NODE_ID='L1'/
&DEVC QUANTITY='NODE MASS FRACTION',SPEC_ID='MYSPEC',NODE_ID='L1 AMB'/
&DEVC QUANTITY='NODE MASS FRACTION',SPEC_ID='MYSPEC',NODE_ID='V1'/
&DEVC QUANTITY='NODE MASS FRACTION',SPEC_ID='MYSPEC',NODE_ID='V2'/
